
**** 05/15/18 19:23:25 ******* PSpice Lite (March 2016) ******* ID# 10813 ****

 *--------------------------------------


 ****     CIRCUIT DESCRIPTION


******************************************************************************



* BAND-PASS ACTIVE FILTER                         -
*                                     -
* Author: Van Dessel Stijn            -
* Date: 9 may 2018                    -
* Filename: AFtrap_21_mcr5_tl084.cir -
*--------------------------------------
.inc TL084.cir

**** INCLUDING TL084.cir ****
* TL084 OPERATIONAL AMPLIFIER "MACROMODEL" SUBCIRCUIT
* CREATED USING PARTS RELEASE 4.01 ON 06/16/89 AT 13:08
* (REV N/A)      SUPPLY VOLTAGE: +/-15V
* CONNECTIONS:   NON-INVERTING INPUT
*                | INVERTING INPUT
*                | | POSITIVE POWER SUPPLY
*                | | | NEGATIVE POWER SUPPLY
*                | | | | OUTPUT
*                | | | | |
.SUBCKT TL084    1 2 3 4 5
*
  C1   11 12 3.498E-12
  C2    6  7 15.00E-12
  DC    5 53 DX
  DE   54  5 DX
  DLP  90 91 DX
  DLN  92 90 DX
  DP    4  3 DX
  EGND 99  0 POLY(2) (3,0) (4,0) 0 .5 .5
  FB    7 99 POLY(5) VB VC VE VLP VLN 0 4.715E6 -5E6 5E6 5E6 -5E6
  GA    6  0 11 12 282.8E-6
  GCM   0  6 10 99 8.942E-9
  ISS   3 10 DC 195.0E-6
  HLIM 90  0 VLIM 1K
  J1   11  2 10 JX
  J2   12  1 10 JX
  R2    6  9 100.0E3
  RD1   4 11 3.536E3
  RD2   4 12 3.536E3
  RO1   8  5 150
  RO2   7 99 150
  RP    3  4 2.143E3
  RSS  10 99 1.026E6
  VB    9  0 DC 0
  VC    3 53 DC 2.200
  VE   54  4 DC 2.200
  VLIM  7  8 DC 0
  VLP  91  0 DC 25
  VLN   0 92 DC 25
.MODEL DX D(IS=800.0E-18)
.MODEL JX PJF(IS=15.00E-12 BETA=270.1E-6 VTO=-1)
.ENDS

**** RESUMING "AFtrap_21_mcr5_tl084 .cir" ****

.model rmod  res(r = 1k  DEV  5%)
.model cmod  cap(c = 1n  DEV 20%)

Vin 7 0 AC 1V
Vcc 10 0  DC  15V
Vee 20 0  DC -15V

R1 5 7 rmod 7.9577
R2 2 3 rmod 7.9577
R3 3 4 rmod 7.9577
R4 4 5 rmod 7.9577
R5 5 6 rmod 15.915
R6 1 6 rmod 7.9577
C1 1 2 cmod 10
C2 5 6 cmod 40

*       i+ i- V+ V-  O
XTL084_1   0  3 10 20  2 TL084
XTL084_2   0  5 10 20  6 TL084
XTL084_3   1  0 10 20  4 TL084

.AC DEC 100 100HZ 10KHZ
.MC 10 AC V(6) YMAX LIST OUTPUT ALL

.PROBE
.END

**** 05/15/18 19:23:25 ******* PSpice Lite (March 2016) ******* ID# 10813 ****

 *--------------------------------------


 ****     Diode MODEL PARAMETERS


******************************************************************************




               XTL084_1.DX     XTL084_2.DX     XTL084_3.DX     
          IS  800.000000E-18  800.000000E-18  800.000000E-18 


**** 05/15/18 19:23:25 ******* PSpice Lite (March 2016) ******* ID# 10813 ****

 *--------------------------------------


 ****     Junction FET MODEL PARAMETERS


******************************************************************************




               XTL084_1.JX     XTL084_2.JX     XTL084_3.JX     
               PJF             PJF             PJF             
         VTO   -1              -1              -1            
        BETA  270.100000E-06  270.100000E-06  270.100000E-06 
          IS   15.000000E-12   15.000000E-12   15.000000E-12 


**** 05/15/18 19:23:25 ******* PSpice Lite (March 2016) ******* ID# 10813 ****

 *--------------------------------------


 ****     Resistor MODEL PARAMETERS


******************************************************************************




               rmod            
           R    1.000000E+03 


**** 05/15/18 19:23:25 ******* PSpice Lite (March 2016) ******* ID# 10813 ****

 *--------------------------------------


 ****     Capacitor MODEL PARAMETERS


******************************************************************************




               cmod            
           C    1.000000E-09 


**** 05/15/18 19:23:25 ******* PSpice Lite (March 2016) ******* ID# 10813 ****

 *--------------------------------------


 ****     SMALL SIGNAL BIAS SOLUTION       TEMPERATURE =   27.000 DEG C

                      MONTE CARLO NOMINAL

******************************************************************************



 NODE   VOLTAGE     NODE   VOLTAGE     NODE   VOLTAGE     NODE   VOLTAGE


(    1)-10.97E-06  (    2)-10.79E-06  (    3) 10.97E-06  (    4) 33.09E-06      

(    5) 10.97E-06  (    6)-10.61E-06  (    7)    0.0000  (   10)   15.0000      

(   20)  -15.0000  (XTL084_1.6) 1.645E-09                (XTL084_1.7)-11.20E-06 

(XTL084_1.8)-11.20E-06                (XTL084_1.9)    0.0000                    

(XTL084_2.6) 1.559E-09                (XTL084_2.7)-10.81E-06                    

(XTL084_2.8)-10.81E-06                (XTL084_2.9)    0.0000                    

(XTL084_3.6)-4.923E-09                (XTL084_3.7) 33.93E-06                    

(XTL084_3.8) 33.93E-06                (XTL084_3.9)    0.0000                    

(XTL084_1.10)    -.3986               (XTL084_1.11)  -14.6550                   

(XTL084_1.12)  -14.6550               (XTL084_1.53)   12.8000                   

(XTL084_1.54)  -12.8000               (XTL084_1.90)-2.735E-06                   

(XTL084_1.91)   25.0000               (XTL084_1.92)  -25.0000                   

(XTL084_1.99)    0.0000               (XTL084_2.10)    -.3986                   

(XTL084_2.11)  -14.6550               (XTL084_2.12)  -14.6550                   

(XTL084_2.53)   12.8000               (XTL084_2.54)  -12.8000                   

(XTL084_2.90)-1.311E-06               (XTL084_2.91)   25.0000                   

(XTL084_2.92)  -25.0000               (XTL084_2.99)    0.0000                   

(XTL084_3.10)    -.3986               (XTL084_3.11)  -14.6550                   

(XTL084_3.12)  -14.6550               (XTL084_3.53)   12.8000                   

(XTL084_3.54)  -12.8000               (XTL084_3.90) 5.560E-06                   

(XTL084_3.91)   25.0000               (XTL084_3.92)  -25.0000                   

(XTL084_3.99)    0.0000               




    VOLTAGE SOURCE CURRENTS
    NAME         CURRENT

    Vin          1.379E-09
    Vcc         -4.258E-02
    Vee          4.258E-02
    XTL084_1.VB   1.645E-14
    XTL084_1.VC   1.280E-11
    XTL084_1.VE   1.280E-11
    XTL084_1.VLIM  -2.735E-09
    XTL084_1.VLP  -2.500E-11
    XTL084_1.VLN  -2.500E-11
    XTL084_2.VB   1.559E-14
    XTL084_2.VC   1.280E-11
    XTL084_2.VE   1.280E-11
    XTL084_2.VLIM  -1.311E-09
    XTL084_2.VLP  -2.500E-11
    XTL084_2.VLN  -2.500E-11
    XTL084_3.VB  -4.923E-14
    XTL084_3.VC   1.280E-11
    XTL084_3.VE   1.280E-11
    XTL084_3.VLIM   5.560E-09
    XTL084_3.VLP  -2.500E-11
    XTL084_3.VLN  -2.500E-11

    TOTAL POWER DISSIPATION   1.28E+00  WATTS


**** 05/15/18 19:23:25 ******* PSpice Lite (March 2016) ******* ID# 10813 ****

 *--------------------------------------


 ****     UPDATED MODEL PARAMETERS         TEMPERATURE =   27.000 DEG C

                      MONTE CARLO NOMINAL

******************************************************************************



     **** CURRENT MODEL PARAMETERS FOR DEVICES REFERENCING cmod
                                    C1           C2      
                  C             1.0000E-09   1.0000E-09  
                               
    
     **** CURRENT MODEL PARAMETERS FOR DEVICES REFERENCING rmod
                                    R1           R2      R3           
                  R             1.0000E+03   1.0000E+03   1.0000E+03  

    
                                    R4           R5      R6           
                  R             1.0000E+03   1.0000E+03   1.0000E+03  

    

**** 05/15/18 19:23:25 ******* PSpice Lite (March 2016) ******* ID# 10813 ****

 *--------------------------------------


 ****     SMALL SIGNAL BIAS SOLUTION       TEMPERATURE =   27.000 DEG C

                      MONTE CARLO PASS 2

******************************************************************************



 NODE   VOLTAGE     NODE   VOLTAGE     NODE   VOLTAGE     NODE   VOLTAGE


(    1)-10.97E-06  (    2)-12.70E-06  (    3) 10.97E-06  (    4) 33.53E-06      

(    5) 10.97E-06  (    6)-10.61E-06  (    7)    0.0000  (   10)   15.0000      

(   20)  -15.0000  (XTL084_1.6) 1.920E-09                (XTL084_1.7)-13.13E-06 

(XTL084_1.8)-13.13E-06                (XTL084_1.9)    0.0000                    

(XTL084_2.6) 1.559E-09                (XTL084_2.7)-10.81E-06                    

(XTL084_2.8)-10.81E-06                (XTL084_2.9)    0.0000                    

(XTL084_3.6)-4.991E-09                (XTL084_3.7) 34.39E-06                    

(XTL084_3.8) 34.39E-06                (XTL084_3.9)    0.0000                    

(XTL084_1.10)    -.3986               (XTL084_1.11)  -14.6550                   

(XTL084_1.12)  -14.6550               (XTL084_1.53)   12.8000                   

(XTL084_1.54)  -12.8000               (XTL084_1.90)-2.864E-06                   

(XTL084_1.91)   25.0000               (XTL084_1.92)  -25.0000                   

(XTL084_1.99)    0.0000               (XTL084_2.10)    -.3986                   

(XTL084_2.11)  -14.6550               (XTL084_2.12)  -14.6550                   

(XTL084_2.53)   12.8000               (XTL084_2.54)  -12.8000                   

(XTL084_2.90)-1.346E-06               (XTL084_2.91)   25.0000                   

(XTL084_2.92)  -25.0000               (XTL084_2.99)    0.0000                   

(XTL084_3.10)    -.3986               (XTL084_3.11)  -14.6550                   

(XTL084_3.12)  -14.6550               (XTL084_3.53)   12.8000                   

(XTL084_3.54)  -12.8000               (XTL084_3.90) 5.705E-06                   

(XTL084_3.91)   25.0000               (XTL084_3.92)  -25.0000                   

(XTL084_3.99)    0.0000               




    VOLTAGE SOURCE CURRENTS
    NAME         CURRENT

    Vin          1.360E-09
    Vcc         -4.258E-02
    Vee          4.258E-02
    XTL084_1.VB   1.920E-14
    XTL084_1.VC   1.280E-11
    XTL084_1.VE   1.280E-11
    XTL084_1.VLIM  -2.864E-09
    XTL084_1.VLP  -2.500E-11
    XTL084_1.VLN  -2.500E-11
    XTL084_2.VB   1.559E-14
    XTL084_2.VC   1.280E-11
    XTL084_2.VE   1.280E-11
    XTL084_2.VLIM  -1.346E-09
    XTL084_2.VLP  -2.500E-11
    XTL084_2.VLN  -2.500E-11
    XTL084_3.VB  -4.991E-14
    XTL084_3.VC   1.280E-11
    XTL084_3.VE   1.280E-11
    XTL084_3.VLIM   5.705E-09
    XTL084_3.VLP  -2.500E-11
    XTL084_3.VLN  -2.500E-11

    TOTAL POWER DISSIPATION   1.28E+00  WATTS


**** 05/15/18 19:23:25 ******* PSpice Lite (March 2016) ******* ID# 10813 ****

 *--------------------------------------


 ****     UPDATED MODEL PARAMETERS         TEMPERATURE =   27.000 DEG C

                      MONTE CARLO PASS 2

******************************************************************************



     **** CURRENT MODEL PARAMETERS FOR DEVICES REFERENCING cmod
                                    C1           C2      
                  C             9.7702E-10   9.9044E-10  
                               
    
     **** CURRENT MODEL PARAMETERS FOR DEVICES REFERENCING rmod
                                    R1           R2      R3           
                  R             1.0137E+03   1.0386E+03   9.7465E+02  

    
                                    R4           R5      R6           
                  R             1.0139E+03   9.7469E+02   1.0138E+03  

    

**** 05/15/18 19:23:25 ******* PSpice Lite (March 2016) ******* ID# 10813 ****

 *--------------------------------------


 ****     SMALL SIGNAL BIAS SOLUTION       TEMPERATURE =   27.000 DEG C

                      MONTE CARLO PASS 3

******************************************************************************



 NODE   VOLTAGE     NODE   VOLTAGE     NODE   VOLTAGE     NODE   VOLTAGE


(    1)-10.97E-06  (    2)-10.45E-06  (    3) 10.97E-06  (    4) 32.03E-06      

(    5) 10.97E-06  (    6)-10.62E-06  (    7)    0.0000  (   10)   15.0000      

(   20)  -15.0000  (XTL084_1.6) 1.592E-09                (XTL084_1.7)-10.84E-06 

(XTL084_1.8)-10.84E-06                (XTL084_1.9)    0.0000                    

(XTL084_2.6) 1.559E-09                (XTL084_2.7)-10.82E-06                    

(XTL084_2.8)-10.82E-06                (XTL084_2.9)    0.0000                    

(XTL084_3.6)-4.765E-09                (XTL084_3.7) 32.84E-06                    

(XTL084_3.8) 32.84E-06                (XTL084_3.9)    0.0000                    

(XTL084_1.10)    -.3986               (XTL084_1.11)  -14.6550                   

(XTL084_1.12)  -14.6550               (XTL084_1.53)   12.8000                   

(XTL084_1.54)  -12.8000               (XTL084_1.90)-2.647E-06                   

(XTL084_1.91)   25.0000               (XTL084_1.92)  -25.0000                   

(XTL084_1.99)    0.0000               (XTL084_2.10)    -.3986                   

(XTL084_2.11)  -14.6550               (XTL084_2.12)  -14.6550                   

(XTL084_2.53)   12.8000               (XTL084_2.54)  -12.8000                   

(XTL084_2.90)-1.274E-06               (XTL084_2.91)   25.0000                   

(XTL084_2.92)  -25.0000               (XTL084_2.99)    0.0000                   

(XTL084_3.10)    -.3986               (XTL084_3.11)  -14.6550                   

(XTL084_3.12)  -14.6550               (XTL084_3.53)   12.8000                   

(XTL084_3.54)  -12.8000               (XTL084_3.90) 5.382E-06                   

(XTL084_3.91)   25.0000               (XTL084_3.92)  -25.0000                   

(XTL084_3.99)    0.0000               




    VOLTAGE SOURCE CURRENTS
    NAME         CURRENT

    Vin          1.326E-09
    Vcc         -4.258E-02
    Vee          4.258E-02
    XTL084_1.VB   1.592E-14
    XTL084_1.VC   1.280E-11
    XTL084_1.VE   1.280E-11
    XTL084_1.VLIM  -2.647E-09
    XTL084_1.VLP  -2.500E-11
    XTL084_1.VLN  -2.500E-11
    XTL084_2.VB   1.559E-14
    XTL084_2.VC   1.280E-11
    XTL084_2.VE   1.280E-11
    XTL084_2.VLIM  -1.274E-09
    XTL084_2.VLP  -2.500E-11
    XTL084_2.VLN  -2.500E-11
    XTL084_3.VB  -4.765E-14
    XTL084_3.VC   1.280E-11
    XTL084_3.VE   1.280E-11
    XTL084_3.VLIM   5.382E-09
    XTL084_3.VLP  -2.500E-11
    XTL084_3.VLN  -2.500E-11

    TOTAL POWER DISSIPATION   1.28E+00  WATTS


**** 05/15/18 19:23:25 ******* PSpice Lite (March 2016) ******* ID# 10813 ****

 *--------------------------------------


 ****     UPDATED MODEL PARAMETERS         TEMPERATURE =   27.000 DEG C

                      MONTE CARLO PASS 3

******************************************************************************



     **** CURRENT MODEL PARAMETERS FOR DEVICES REFERENCING cmod
                                    C1           C2      
                  C             1.0575E-09   8.5116E-10  
                               
    
     **** CURRENT MODEL PARAMETERS FOR DEVICES REFERENCING rmod
                                    R1           R2      R3           
                  R             1.0399E+03   1.0168E+03   9.8309E+02  

    
                                    R4           R5      R6           
                  R             9.8383E+02   1.0286E+03   9.6699E+02  

    

**** 05/15/18 19:23:25 ******* PSpice Lite (March 2016) ******* ID# 10813 ****

 *--------------------------------------


 ****     SMALL SIGNAL BIAS SOLUTION       TEMPERATURE =   27.000 DEG C

                      MONTE CARLO PASS 4

******************************************************************************



 NODE   VOLTAGE     NODE   VOLTAGE     NODE   VOLTAGE     NODE   VOLTAGE


(    1)-10.97E-06  (    2)-10.20E-06  (    3) 10.97E-06  (    4) 33.11E-06      

(    5) 10.97E-06  (    6)-10.60E-06  (    7)    0.0000  (   10)   15.0000      

(   20)  -15.0000  (XTL084_1.6) 1.559E-09                (XTL084_1.7)-10.60E-06 

(XTL084_1.8)-10.60E-06                (XTL084_1.9)    0.0000                    

(XTL084_2.6) 1.558E-09                (XTL084_2.7)-10.80E-06                    

(XTL084_2.8)-10.80E-06                (XTL084_2.9)    0.0000                    

(XTL084_3.6)-4.921E-09                (XTL084_3.7) 33.93E-06                    

(XTL084_3.8) 33.93E-06                (XTL084_3.9)    0.0000                    

(XTL084_1.10)    -.3986               (XTL084_1.11)  -14.6550                   

(XTL084_1.12)  -14.6550               (XTL084_1.53)   12.8000                   

(XTL084_1.54)  -12.8000               (XTL084_1.90)-2.675E-06                   

(XTL084_1.91)   25.0000               (XTL084_1.92)  -25.0000                   

(XTL084_1.99)    0.0000               (XTL084_2.10)    -.3986                   

(XTL084_2.11)  -14.6550               (XTL084_2.12)  -14.6550                   

(XTL084_2.53)   12.8000               (XTL084_2.54)  -12.8000                   

(XTL084_2.90)-1.312E-06               (XTL084_2.91)   25.0000                   

(XTL084_2.92)  -25.0000               (XTL084_2.99)    0.0000                   

(XTL084_3.10)    -.3986               (XTL084_3.11)  -14.6550                   

(XTL084_3.12)  -14.6550               (XTL084_3.53)   12.8000                   

(XTL084_3.54)  -12.8000               (XTL084_3.90) 5.468E-06                   

(XTL084_3.91)   25.0000               (XTL084_3.92)  -25.0000                   

(XTL084_3.99)    0.0000               




    VOLTAGE SOURCE CURRENTS
    NAME         CURRENT

    Vin          1.346E-09
    Vcc         -4.258E-02
    Vee          4.258E-02
    XTL084_1.VB   1.559E-14
    XTL084_1.VC   1.280E-11
    XTL084_1.VE   1.280E-11
    XTL084_1.VLIM  -2.675E-09
    XTL084_1.VLP  -2.500E-11
    XTL084_1.VLN  -2.500E-11
    XTL084_2.VB   1.558E-14
    XTL084_2.VC   1.280E-11
    XTL084_2.VE   1.280E-11
    XTL084_2.VLIM  -1.312E-09
    XTL084_2.VLP  -2.500E-11
    XTL084_2.VLN  -2.500E-11
    XTL084_3.VB  -4.921E-14
    XTL084_3.VC   1.280E-11
    XTL084_3.VE   1.280E-11
    XTL084_3.VLIM   5.468E-09
    XTL084_3.VLP  -2.500E-11
    XTL084_3.VLN  -2.500E-11

    TOTAL POWER DISSIPATION   1.28E+00  WATTS


**** 05/15/18 19:23:25 ******* PSpice Lite (March 2016) ******* ID# 10813 ****

 *--------------------------------------


 ****     UPDATED MODEL PARAMETERS         TEMPERATURE =   27.000 DEG C

                      MONTE CARLO PASS 4

******************************************************************************



     **** CURRENT MODEL PARAMETERS FOR DEVICES REFERENCING cmod
                                    C1           C2      
                  C             8.8436E-10   8.2988E-10  
                               
    
     **** CURRENT MODEL PARAMETERS FOR DEVICES REFERENCING rmod
                                    R1           R2      R3           
                  R             1.0240E+03   9.9470E+02   1.0227E+03  

    
                                    R4           R5      R6           
                  R             1.0120E+03   9.9877E+02   1.0236E+03  

    

**** 05/15/18 19:23:25 ******* PSpice Lite (March 2016) ******* ID# 10813 ****

 *--------------------------------------


 ****     SMALL SIGNAL BIAS SOLUTION       TEMPERATURE =   27.000 DEG C

                      MONTE CARLO PASS 5

******************************************************************************



 NODE   VOLTAGE     NODE   VOLTAGE     NODE   VOLTAGE     NODE   VOLTAGE


(    1)-10.97E-06  (    2)-11.96E-06  (    3) 10.97E-06  (    4) 34.26E-06      

(    5) 10.97E-06  (    6)-10.60E-06  (    7)    0.0000  (   10)   15.0000      

(   20)  -15.0000  (XTL084_1.6) 1.818E-09                (XTL084_1.7)-12.40E-06 

(XTL084_1.8)-12.40E-06                (XTL084_1.9)    0.0000                    

(XTL084_2.6) 1.557E-09                (XTL084_2.7)-10.80E-06                    

(XTL084_2.8)-10.80E-06                (XTL084_2.9)    0.0000                    

(XTL084_3.6)-5.097E-09                (XTL084_3.7) 35.12E-06                    

(XTL084_3.8) 35.12E-06                (XTL084_3.9)    0.0000                    

(XTL084_1.10)    -.3986               (XTL084_1.11)  -14.6550                   

(XTL084_1.12)  -14.6550               (XTL084_1.53)   12.8000                   

(XTL084_1.54)  -12.8000               (XTL084_1.90)-2.901E-06                   

(XTL084_1.91)   25.0000               (XTL084_1.92)  -25.0000                   

(XTL084_1.99)    0.0000               (XTL084_2.10)    -.3986                   

(XTL084_2.11)  -14.6550               (XTL084_2.12)  -14.6550                   

(XTL084_2.53)   12.8000               (XTL084_2.54)  -12.8000                   

(XTL084_2.90)-1.307E-06               (XTL084_2.91)   25.0000                   

(XTL084_2.92)  -25.0000               (XTL084_2.99)    0.0000                   

(XTL084_3.10)    -.3986               (XTL084_3.11)  -14.6550                   

(XTL084_3.12)  -14.6550               (XTL084_3.53)   12.8000                   

(XTL084_3.54)  -12.8000               (XTL084_3.90) 5.781E-06                   

(XTL084_3.91)   25.0000               (XTL084_3.92)  -25.0000                   

(XTL084_3.99)    0.0000               




    VOLTAGE SOURCE CURRENTS
    NAME         CURRENT

    Vin          1.438E-09
    Vcc         -4.258E-02
    Vee          4.258E-02
    XTL084_1.VB   1.818E-14
    XTL084_1.VC   1.280E-11
    XTL084_1.VE   1.280E-11
    XTL084_1.VLIM  -2.901E-09
    XTL084_1.VLP  -2.500E-11
    XTL084_1.VLN  -2.500E-11
    XTL084_2.VB   1.557E-14
    XTL084_2.VC   1.280E-11
    XTL084_2.VE   1.280E-11
    XTL084_2.VLIM  -1.307E-09
    XTL084_2.VLP  -2.500E-11
    XTL084_2.VLN  -2.500E-11
    XTL084_3.VB  -5.097E-14
    XTL084_3.VC   1.280E-11
    XTL084_3.VE   1.280E-11
    XTL084_3.VLIM   5.781E-09
    XTL084_3.VLP  -2.500E-11
    XTL084_3.VLN  -2.500E-11

    TOTAL POWER DISSIPATION   1.28E+00  WATTS


**** 05/15/18 19:23:25 ******* PSpice Lite (March 2016) ******* ID# 10813 ****

 *--------------------------------------


 ****     UPDATED MODEL PARAMETERS         TEMPERATURE =   27.000 DEG C

                      MONTE CARLO PASS 5

******************************************************************************



     **** CURRENT MODEL PARAMETERS FOR DEVICES REFERENCING cmod
                                    C1           C2      
                  C             1.0671E-09   1.1356E-09  
                               
    
     **** CURRENT MODEL PARAMETERS FOR DEVICES REFERENCING rmod
                                    R1           R2      R3           
                  R             9.5888E+02   9.9353E+02   9.9332E+02  

    
                                    R4           R5      R6           
                  R             1.0320E+03   1.0024E+03   1.0231E+03  

    

**** 05/15/18 19:23:25 ******* PSpice Lite (March 2016) ******* ID# 10813 ****

 *--------------------------------------


 ****     SMALL SIGNAL BIAS SOLUTION       TEMPERATURE =   27.000 DEG C

                      MONTE CARLO PASS 6

******************************************************************************



 NODE   VOLTAGE     NODE   VOLTAGE     NODE   VOLTAGE     NODE   VOLTAGE


(    1)-10.97E-06  (    2)-9.081E-06  (    3) 10.97E-06  (    4) 32.33E-06      

(    5) 10.97E-06  (    6)-10.60E-06  (    7)    0.0000  (   10)   15.0000      

(   20)  -15.0000  (XTL084_1.6) 1.393E-09                (XTL084_1.7)-9.459E-06 

(XTL084_1.8)-9.459E-06                (XTL084_1.9)    0.0000                    

(XTL084_2.6) 1.559E-09                (XTL084_2.7)-10.81E-06                    

(XTL084_2.8)-10.81E-06                (XTL084_2.9)    0.0000                    

(XTL084_3.6)-4.807E-09                (XTL084_3.7) 33.13E-06                    

(XTL084_3.8) 33.13E-06                (XTL084_3.9)    0.0000                    

(XTL084_1.10)    -.3986               (XTL084_1.11)  -14.6550                   

(XTL084_1.12)  -14.6550               (XTL084_1.53)   12.8000                   

(XTL084_1.54)  -12.8000               (XTL084_1.90)-2.517E-06                   

(XTL084_1.91)   25.0000               (XTL084_1.92)  -25.0000                   

(XTL084_1.99)    0.0000               (XTL084_2.10)    -.3986                   

(XTL084_2.11)  -14.6550               (XTL084_2.12)  -14.6550                   

(XTL084_2.53)   12.8000               (XTL084_2.54)  -12.8000                   

(XTL084_2.90)-1.362E-06               (XTL084_2.91)   25.0000                   

(XTL084_2.92)  -25.0000               (XTL084_2.99)    0.0000                   

(XTL084_3.10)    -.3986               (XTL084_3.11)  -14.6550                   

(XTL084_3.12)  -14.6550               (XTL084_3.53)   12.8000                   

(XTL084_3.54)  -12.8000               (XTL084_3.90) 5.368E-06                   

(XTL084_3.91)   25.0000               (XTL084_3.92)  -25.0000                   

(XTL084_3.99)    0.0000               




    VOLTAGE SOURCE CURRENTS
    NAME         CURRENT

    Vin          1.353E-09
    Vcc         -4.258E-02
    Vee          4.258E-02
    XTL084_1.VB   1.393E-14
    XTL084_1.VC   1.280E-11
    XTL084_1.VE   1.280E-11
    XTL084_1.VLIM  -2.517E-09
    XTL084_1.VLP  -2.500E-11
    XTL084_1.VLN  -2.500E-11
    XTL084_2.VB   1.559E-14
    XTL084_2.VC   1.280E-11
    XTL084_2.VE   1.280E-11
    XTL084_2.VLIM  -1.362E-09
    XTL084_2.VLP  -2.500E-11
    XTL084_2.VLN  -2.500E-11
    XTL084_3.VB  -4.807E-14
    XTL084_3.VC   1.280E-11
    XTL084_3.VE   1.280E-11
    XTL084_3.VLIM   5.368E-09
    XTL084_3.VLP  -2.500E-11
    XTL084_3.VLN  -2.500E-11

    TOTAL POWER DISSIPATION   1.28E+00  WATTS


**** 05/15/18 19:23:25 ******* PSpice Lite (March 2016) ******* ID# 10813 ****

 *--------------------------------------


 ****     UPDATED MODEL PARAMETERS         TEMPERATURE =   27.000 DEG C

                      MONTE CARLO PASS 6

******************************************************************************



     **** CURRENT MODEL PARAMETERS FOR DEVICES REFERENCING cmod
                                    C1           C2      
                  C             9.6853E-10   1.1978E-09  
                               
    
     **** CURRENT MODEL PARAMETERS FOR DEVICES REFERENCING rmod
                                    R1           R2      R3           
                  R             1.0187E+03   1.0011E+03   1.0475E+03  

    
                                    R4           R5      R6           
                  R             9.5668E+02   9.6330E+02   1.0285E+03  

    

**** 05/15/18 19:23:25 ******* PSpice Lite (March 2016) ******* ID# 10813 ****

 *--------------------------------------


 ****     SMALL SIGNAL BIAS SOLUTION       TEMPERATURE =   27.000 DEG C

                      MONTE CARLO PASS 7

******************************************************************************



 NODE   VOLTAGE     NODE   VOLTAGE     NODE   VOLTAGE     NODE   VOLTAGE


(    1)-10.97E-06  (    2)-12.00E-06  (    3) 10.97E-06  (    4) 33.97E-06      

(    5) 10.97E-06  (    6)-10.62E-06  (    7)    0.0000  (   10)   15.0000      

(   20)  -15.0000  (XTL084_1.6) 1.820E-09                (XTL084_1.7)-12.43E-06 

(XTL084_1.8)-12.43E-06                (XTL084_1.9)    0.0000                    

(XTL084_2.6) 1.563E-09                (XTL084_2.7)-10.83E-06                    

(XTL084_2.8)-10.83E-06                (XTL084_2.9)    0.0000                    

(XTL084_3.6)-5.053E-09                (XTL084_3.7) 34.82E-06                    

(XTL084_3.8) 34.82E-06                (XTL084_3.9)    0.0000                    

(XTL084_1.10)    -.3986               (XTL084_1.11)  -14.6550                   

(XTL084_1.12)  -14.6550               (XTL084_1.53)   12.8000                   

(XTL084_1.54)  -12.8000               (XTL084_1.90)-2.822E-06                   

(XTL084_1.91)   25.0000               (XTL084_1.92)  -25.0000                   

(XTL084_1.99)    0.0000               (XTL084_2.10)    -.3986                   

(XTL084_2.11)  -14.6550               (XTL084_2.12)  -14.6550                   

(XTL084_2.53)   12.8000               (XTL084_2.54)  -12.8000                   

(XTL084_2.90)-1.378E-06               (XTL084_2.91)   25.0000                   

(XTL084_2.92)  -25.0000               (XTL084_2.99)    0.0000                   

(XTL084_3.10)    -.3986               (XTL084_3.11)  -14.6550                   

(XTL084_3.12)  -14.6550               (XTL084_3.53)   12.8000                   

(XTL084_3.54)  -12.8000               (XTL084_3.90) 5.690E-06                   

(XTL084_3.91)   25.0000               (XTL084_3.92)  -25.0000                   

(XTL084_3.99)    0.0000               




    VOLTAGE SOURCE CURRENTS
    NAME         CURRENT

    Vin          1.354E-09
    Vcc         -4.258E-02
    Vee          4.258E-02
    XTL084_1.VB   1.820E-14
    XTL084_1.VC   1.280E-11
    XTL084_1.VE   1.280E-11
    XTL084_1.VLIM  -2.822E-09
    XTL084_1.VLP  -2.500E-11
    XTL084_1.VLN  -2.500E-11
    XTL084_2.VB   1.563E-14
    XTL084_2.VC   1.280E-11
    XTL084_2.VE   1.280E-11
    XTL084_2.VLIM  -1.378E-09
    XTL084_2.VLP  -2.500E-11
    XTL084_2.VLN  -2.500E-11
    XTL084_3.VB  -5.053E-14
    XTL084_3.VC   1.280E-11
    XTL084_3.VE   1.280E-11
    XTL084_3.VLIM   5.690E-09
    XTL084_3.VLP  -2.500E-11
    XTL084_3.VLN  -2.500E-11

    TOTAL POWER DISSIPATION   1.28E+00  WATTS


**** 05/15/18 19:23:25 ******* PSpice Lite (March 2016) ******* ID# 10813 ****

 *--------------------------------------


 ****     UPDATED MODEL PARAMETERS         TEMPERATURE =   27.000 DEG C

                      MONTE CARLO PASS 7

******************************************************************************



     **** CURRENT MODEL PARAMETERS FOR DEVICES REFERENCING cmod
                                    C1           C2      
                  C             9.6668E-10   1.0092E-09  
                               
    
     **** CURRENT MODEL PARAMETERS FOR DEVICES REFERENCING rmod
                                    R1           R2      R3           
                  R             1.0184E+03   1.0229E+03   1.0080E+03  

    
                                    R4           R5      R6           
                  R             1.0241E+03   9.5324E+02   9.6718E+02  

    

**** 05/15/18 19:23:25 ******* PSpice Lite (March 2016) ******* ID# 10813 ****

 *--------------------------------------


 ****     SMALL SIGNAL BIAS SOLUTION       TEMPERATURE =   27.000 DEG C

                      MONTE CARLO PASS 8

******************************************************************************



 NODE   VOLTAGE     NODE   VOLTAGE     NODE   VOLTAGE     NODE   VOLTAGE


(    1)-10.97E-06  (    2)-10.55E-06  (    3) 10.97E-06  (    4) 32.18E-06      

(    5) 10.97E-06  (    6)-10.60E-06  (    7)    0.0000  (   10)   15.0000      

(   20)  -15.0000  (XTL084_1.6) 1.607E-09                (XTL084_1.7)-10.94E-06 

(XTL084_1.8)-10.94E-06                (XTL084_1.9)    0.0000                    

(XTL084_2.6) 1.558E-09                (XTL084_2.7)-10.80E-06                    

(XTL084_2.8)-10.80E-06                (XTL084_2.9)    0.0000                    

(XTL084_3.6)-4.789E-09                (XTL084_3.7) 33.00E-06                    

(XTL084_3.8) 33.00E-06                (XTL084_3.9)    0.0000                    

(XTL084_1.10)    -.3986               (XTL084_1.11)  -14.6550                   

(XTL084_1.12)  -14.6550               (XTL084_1.53)   12.8000                   

(XTL084_1.54)  -12.8000               (XTL084_1.90)-2.664E-06                   

(XTL084_1.91)   25.0000               (XTL084_1.92)  -25.0000                   

(XTL084_1.99)    0.0000               (XTL084_2.10)    -.3986                   

(XTL084_2.11)  -14.6550               (XTL084_2.12)  -14.6550                   

(XTL084_2.53)   12.8000               (XTL084_2.54)  -12.8000                   

(XTL084_2.90)-1.334E-06               (XTL084_2.91)   25.0000                   

(XTL084_2.92)  -25.0000               (XTL084_2.99)    0.0000                   

(XTL084_3.10)    -.3986               (XTL084_3.11)  -14.6550                   

(XTL084_3.12)  -14.6550               (XTL084_3.53)   12.8000                   

(XTL084_3.54)  -12.8000               (XTL084_3.90) 5.466E-06                   

(XTL084_3.91)   25.0000               (XTL084_3.92)  -25.0000                   

(XTL084_3.99)    0.0000               




    VOLTAGE SOURCE CURRENTS
    NAME         CURRENT

    Vin          1.333E-09
    Vcc         -4.258E-02
    Vee          4.258E-02
    XTL084_1.VB   1.607E-14
    XTL084_1.VC   1.280E-11
    XTL084_1.VE   1.280E-11
    XTL084_1.VLIM  -2.664E-09
    XTL084_1.VLP  -2.500E-11
    XTL084_1.VLN  -2.500E-11
    XTL084_2.VB   1.558E-14
    XTL084_2.VC   1.280E-11
    XTL084_2.VE   1.280E-11
    XTL084_2.VLIM  -1.334E-09
    XTL084_2.VLP  -2.500E-11
    XTL084_2.VLN  -2.500E-11
    XTL084_3.VB  -4.789E-14
    XTL084_3.VC   1.280E-11
    XTL084_3.VE   1.280E-11
    XTL084_3.VLIM   5.466E-09
    XTL084_3.VLP  -2.500E-11
    XTL084_3.VLN  -2.500E-11

    TOTAL POWER DISSIPATION   1.28E+00  WATTS


**** 05/15/18 19:23:25 ******* PSpice Lite (March 2016) ******* ID# 10813 ****

 *--------------------------------------


 ****     UPDATED MODEL PARAMETERS         TEMPERATURE =   27.000 DEG C

                      MONTE CARLO PASS 8

******************************************************************************



     **** CURRENT MODEL PARAMETERS FOR DEVICES REFERENCING cmod
                                    C1           C2      
                  C             1.0499E-09   9.1610E-10  
                               
    
     **** CURRENT MODEL PARAMETERS FOR DEVICES REFERENCING rmod
                                    R1           R2      R3           
                  R             1.0345E+03   1.0150E+03   9.8371E+02  

    
                                    R4           R5      R6           
                  R             9.6672E+02   9.8291E+02   1.0380E+03  

    

**** 05/15/18 19:23:25 ******* PSpice Lite (March 2016) ******* ID# 10813 ****

 *--------------------------------------


 ****     SMALL SIGNAL BIAS SOLUTION       TEMPERATURE =   27.000 DEG C

                      MONTE CARLO PASS 9

******************************************************************************



 NODE   VOLTAGE     NODE   VOLTAGE     NODE   VOLTAGE     NODE   VOLTAGE


(    1)-10.97E-06  (    2)-9.879E-06  (    3) 10.97E-06  (    4) 33.11E-06      

(    5) 10.97E-06  (    6)-10.62E-06  (    7)    0.0000  (   10)   15.0000      

(   20)  -15.0000  (XTL084_1.6) 1.512E-09                (XTL084_1.7)-10.28E-06 

(XTL084_1.8)-10.28E-06                (XTL084_1.9)    0.0000                    

(XTL084_2.6) 1.557E-09                (XTL084_2.7)-10.81E-06                    

(XTL084_2.8)-10.81E-06                (XTL084_2.9)    0.0000                    

(XTL084_3.6)-4.920E-09                (XTL084_3.7) 33.92E-06                    

(XTL084_3.8) 33.92E-06                (XTL084_3.9)    0.0000                    

(XTL084_1.10)    -.3986               (XTL084_1.11)  -14.6550                   

(XTL084_1.12)  -14.6550               (XTL084_1.53)   12.8000                   

(XTL084_1.54)  -12.8000               (XTL084_1.90)-2.657E-06                   

(XTL084_1.91)   25.0000               (XTL084_1.92)  -25.0000                   

(XTL084_1.99)    0.0000               (XTL084_2.10)    -.3986                   

(XTL084_2.11)  -14.6550               (XTL084_2.12)  -14.6550                   

(XTL084_2.53)   12.8000               (XTL084_2.54)  -12.8000                   

(XTL084_2.90)-1.262E-06               (XTL084_2.91)   25.0000                   

(XTL084_2.92)  -25.0000               (XTL084_2.99)    0.0000                   

(XTL084_3.10)    -.3986               (XTL084_3.11)  -14.6550                   

(XTL084_3.12)  -14.6550               (XTL084_3.53)   12.8000                   

(XTL084_3.54)  -12.8000               (XTL084_3.90) 5.444E-06                   

(XTL084_3.91)   25.0000               (XTL084_3.92)  -25.0000                   

(XTL084_3.99)    0.0000               




    VOLTAGE SOURCE CURRENTS
    NAME         CURRENT

    Vin          1.390E-09
    Vcc         -4.258E-02
    Vee          4.258E-02
    XTL084_1.VB   1.512E-14
    XTL084_1.VC   1.280E-11
    XTL084_1.VE   1.280E-11
    XTL084_1.VLIM  -2.657E-09
    XTL084_1.VLP  -2.500E-11
    XTL084_1.VLN  -2.500E-11
    XTL084_2.VB   1.557E-14
    XTL084_2.VC   1.280E-11
    XTL084_2.VE   1.280E-11
    XTL084_2.VLIM  -1.262E-09
    XTL084_2.VLP  -2.500E-11
    XTL084_2.VLN  -2.500E-11
    XTL084_3.VB  -4.920E-14
    XTL084_3.VC   1.280E-11
    XTL084_3.VE   1.280E-11
    XTL084_3.VLIM   5.444E-09
    XTL084_3.VLP  -2.500E-11
    XTL084_3.VLN  -2.500E-11

    TOTAL POWER DISSIPATION   1.28E+00  WATTS


**** 05/15/18 19:23:25 ******* PSpice Lite (March 2016) ******* ID# 10813 ****

 *--------------------------------------


 ****     UPDATED MODEL PARAMETERS         TEMPERATURE =   27.000 DEG C

                      MONTE CARLO PASS 9

******************************************************************************



     **** CURRENT MODEL PARAMETERS FOR DEVICES REFERENCING cmod
                                    C1           C2      
                  C             1.0467E-09   9.3794E-10  
                               
    
     **** CURRENT MODEL PARAMETERS FOR DEVICES REFERENCING rmod
                                    R1           R2      R3           
                  R             9.9199E+02   9.8608E+02   1.0295E+03  

    
                                    R4           R5      R6           
                  R             1.0145E+03   1.0376E+03   9.8231E+02  

    

**** 05/15/18 19:23:25 ******* PSpice Lite (March 2016) ******* ID# 10813 ****

 *--------------------------------------


 ****     SMALL SIGNAL BIAS SOLUTION       TEMPERATURE =   27.000 DEG C

                      MONTE CARLO PASS 10

******************************************************************************



 NODE   VOLTAGE     NODE   VOLTAGE     NODE   VOLTAGE     NODE   VOLTAGE


(    1)-10.97E-06  (    2)-12.28E-06  (    3) 10.97E-06  (    4) 33.47E-06      

(    5) 10.97E-06  (    6)-10.60E-06  (    7)    0.0000  (   10)   15.0000      

(   20)  -15.0000  (XTL084_1.6) 1.860E-09                (XTL084_1.7)-12.70E-06 

(XTL084_1.8)-12.70E-06                (XTL084_1.9)    0.0000                    

(XTL084_2.6) 1.556E-09                (XTL084_2.7)-10.79E-06                    

(XTL084_2.8)-10.79E-06                (XTL084_2.9)    0.0000                    

(XTL084_3.6)-4.977E-09                (XTL084_3.7) 34.30E-06                    

(XTL084_3.8) 34.30E-06                (XTL084_3.9)    0.0000                    

(XTL084_1.10)    -.3986               (XTL084_1.11)  -14.6550                   

(XTL084_1.12)  -14.6550               (XTL084_1.53)   12.8000                   

(XTL084_1.54)  -12.8000               (XTL084_1.90)-2.834E-06                   

(XTL084_1.91)   25.0000               (XTL084_1.92)  -25.0000                   

(XTL084_1.99)    0.0000               (XTL084_2.10)    -.3986                   

(XTL084_2.11)  -14.6550               (XTL084_2.12)  -14.6550                   

(XTL084_2.53)   12.8000               (XTL084_2.54)  -12.8000                   

(XTL084_2.90)-1.262E-06               (XTL084_2.91)   25.0000                   

(XTL084_2.92)  -25.0000               (XTL084_2.99)    0.0000                   

(XTL084_3.10)    -.3986               (XTL084_3.11)  -14.6550                   

(XTL084_3.12)  -14.6550               (XTL084_3.53)   12.8000                   

(XTL084_3.54)  -12.8000               (XTL084_3.90) 5.590E-06                   

(XTL084_3.91)   25.0000               (XTL084_3.92)  -25.0000                   

(XTL084_3.99)    0.0000               




    VOLTAGE SOURCE CURRENTS
    NAME         CURRENT

    Vin          1.358E-09
    Vcc         -4.258E-02
    Vee          4.258E-02
    XTL084_1.VB   1.860E-14
    XTL084_1.VC   1.280E-11
    XTL084_1.VE   1.280E-11
    XTL084_1.VLIM  -2.834E-09
    XTL084_1.VLP  -2.500E-11
    XTL084_1.VLN  -2.500E-11
    XTL084_2.VB   1.555E-14
    XTL084_2.VC   1.280E-11
    XTL084_2.VE   1.280E-11
    XTL084_2.VLIM  -1.262E-09
    XTL084_2.VLP  -2.500E-11
    XTL084_2.VLN  -2.500E-11
    XTL084_3.VB  -4.977E-14
    XTL084_3.VC   1.280E-11
    XTL084_3.VE   1.280E-11
    XTL084_3.VLIM   5.590E-09
    XTL084_3.VLP  -2.500E-11
    XTL084_3.VLN  -2.500E-11

    TOTAL POWER DISSIPATION   1.28E+00  WATTS


**** 05/15/18 19:23:25 ******* PSpice Lite (March 2016) ******* ID# 10813 ****

 *--------------------------------------


 ****     UPDATED MODEL PARAMETERS         TEMPERATURE =   27.000 DEG C

                      MONTE CARLO PASS 10

******************************************************************************



     **** CURRENT MODEL PARAMETERS FOR DEVICES REFERENCING cmod
                                    C1           C2      
                  C             1.0218E-09   1.0963E-09  
                               
    
     **** CURRENT MODEL PARAMETERS FOR DEVICES REFERENCING rmod
                                    R1           R2      R3           
                  R             1.0149E+03   1.0309E+03   9.8180E+02  

    
                                    R4           R5      R6           
                  R             1.0429E+03   1.0372E+03   1.0218E+03  

    

**** 05/15/18 19:23:25 ******* PSpice Lite (March 2016) ******* ID# 10813 ****

 *--------------------------------------


 ****     SORTED DEVIATIONS OF V(6)        TEMPERATURE =   27.000 DEG C

                      MONTE CARLO SUMMARY

******************************************************************************





Mean Deviation =     .0474
Sigma          =     .4901

 RUN                    MAX DEVIATION FROM NOMINAL

Pass    4                .809   (1.65 sigma)  lower  at F =  954.99
                        (  56.94 % of Nominal)

Pass    5                .7771  (1.59 sigma)  higher  at F =  851.14
                        ( 163.46% of Nominal)

Pass   10                .6801  (1.39 sigma)  higher  at F =  851.14
                        ( 155.53% of Nominal)

Pass    6                .4106  ( .84 sigma)  lower  at F =    1.0715E+03
                        (  76.504% of Nominal)

Pass    3                .3738  ( .76 sigma)  higher  at F =    1.1482E+03
                        ( 127.96% of Nominal)

Pass    9                .277   ( .57 sigma)  higher  at F =    1.0965E+03
                        ( 117.24% of Nominal)

Pass    2                .2024  ( .41 sigma)  lower  at F =    1.0715E+03
                        (  88.42 % of Nominal)

Pass    7                .1593  ( .33 sigma)  lower  at F =  954.99
                        (  91.519% of Nominal)

Pass    8                .1     ( .20 sigma)  lower  at F =    1.0000E+03
                        (  95.001% of Nominal)



          JOB CONCLUDED

**** 05/15/18 19:23:25 ******* PSpice Lite (March 2016) ******* ID# 10813 ****

 *--------------------------------------


 ****     JOB STATISTICS SUMMARY


******************************************************************************



  Total job time (using Solver 1)   =         .63
