
**** 05/15/18 19:12:24 ******* PSpice Lite (March 2016) ******* ID# 10813 ****

 *--------------------------------------


 ****     CIRCUIT DESCRIPTION


******************************************************************************



* BAND-PASS ACTIVE FILTER                         -
*                                     -
* Author: Van Dessel Stijn            -
* Date: 9 may 2018                    -
* Filename: AFtrap_21_bode_tl084.cir -
*--------------------------------------
.inc TL084.cir

**** INCLUDING TL084.cir ****
* TL084 OPERATIONAL AMPLIFIER "MACROMODEL" SUBCIRCUIT
* CREATED USING PARTS RELEASE 4.01 ON 06/16/89 AT 13:08
* (REV N/A)      SUPPLY VOLTAGE: +/-15V
* CONNECTIONS:   NON-INVERTING INPUT
*                | INVERTING INPUT
*                | | POSITIVE POWER SUPPLY
*                | | | NEGATIVE POWER SUPPLY
*                | | | | OUTPUT
*                | | | | |
.SUBCKT TL084    1 2 3 4 5
*
  C1   11 12 3.498E-12
  C2    6  7 15.00E-12
  DC    5 53 DX
  DE   54  5 DX
  DLP  90 91 DX
  DLN  92 90 DX
  DP    4  3 DX
  EGND 99  0 POLY(2) (3,0) (4,0) 0 .5 .5
  FB    7 99 POLY(5) VB VC VE VLP VLN 0 4.715E6 -5E6 5E6 5E6 -5E6
  GA    6  0 11 12 282.8E-6
  GCM   0  6 10 99 8.942E-9
  ISS   3 10 DC 195.0E-6
  HLIM 90  0 VLIM 1K
  J1   11  2 10 JX
  J2   12  1 10 JX
  R2    6  9 100.0E3
  RD1   4 11 3.536E3
  RD2   4 12 3.536E3
  RO1   8  5 150
  RO2   7 99 150
  RP    3  4 2.143E3
  RSS  10 99 1.026E6
  VB    9  0 DC 0
  VC    3 53 DC 2.200
  VE   54  4 DC 2.200
  VLIM  7  8 DC 0
  VLP  91  0 DC 25
  VLN   0 92 DC 25
.MODEL DX D(IS=800.0E-18)
.MODEL JX PJF(IS=15.00E-12 BETA=270.1E-6 VTO=-1)
.ENDS

**** RESUMING AFtrap_21_bode_tl084.cir ****

.model rmod  res(r = 1k  DEV  5%)
.model cmod  cap(c = 1n  DEV 20%)

Vin 7 0 AC 1V
Vcc 10 0  DC  15V
Vee 20 0  DC -15V

R1 5 7 rmod 7.9577
R2 2 3 rmod 7.9577
R3 3 4 rmod 7.9577
R4 4 5 rmod 7.9577
R5 5 6 rmod 15.915
R6 1 6 rmod 7.9577
C1 1 2 cmod 10
C2 5 6 cmod 40

*       i+ i- V+ V-  O
XTL084_1   0  3 10 20  2 TL084
XTL084_2   0  5 10 20  6 TL084
XTL084_3   1  0 10 20  4 TL084

.AC DEC 100 100HZ 100MEGHZ
*.AC DEC 100 100HZ 10KHZ

.PROBE
.END

**** 05/15/18 19:12:24 ******* PSpice Lite (March 2016) ******* ID# 10813 ****

 *--------------------------------------


 ****     Diode MODEL PARAMETERS


******************************************************************************




               XTL084_1.DX     XTL084_2.DX     XTL084_3.DX     
          IS  800.000000E-18  800.000000E-18  800.000000E-18 


**** 05/15/18 19:12:24 ******* PSpice Lite (March 2016) ******* ID# 10813 ****

 *--------------------------------------


 ****     Junction FET MODEL PARAMETERS


******************************************************************************




               XTL084_1.JX     XTL084_2.JX     XTL084_3.JX     
               PJF             PJF             PJF             
         VTO   -1              -1              -1            
        BETA  270.100000E-06  270.100000E-06  270.100000E-06 
          IS   15.000000E-12   15.000000E-12   15.000000E-12 


**** 05/15/18 19:12:24 ******* PSpice Lite (March 2016) ******* ID# 10813 ****

 *--------------------------------------


 ****     Resistor MODEL PARAMETERS


******************************************************************************




               rmod            
           R    1.000000E+03 


**** 05/15/18 19:12:24 ******* PSpice Lite (March 2016) ******* ID# 10813 ****

 *--------------------------------------


 ****     Capacitor MODEL PARAMETERS


******************************************************************************




               cmod            
           C    1.000000E-09 


**** 05/15/18 19:12:24 ******* PSpice Lite (March 2016) ******* ID# 10813 ****

 *--------------------------------------


 ****     SMALL SIGNAL BIAS SOLUTION       TEMPERATURE =   27.000 DEG C


******************************************************************************



 NODE   VOLTAGE     NODE   VOLTAGE     NODE   VOLTAGE     NODE   VOLTAGE


(    1)-10.97E-06  (    2)-10.79E-06  (    3) 10.97E-06  (    4) 33.09E-06      

(    5) 10.97E-06  (    6)-10.61E-06  (    7)    0.0000  (   10)   15.0000      

(   20)  -15.0000  (XTL084_1.6) 1.645E-09                (XTL084_1.7)-11.20E-06 

(XTL084_1.8)-11.20E-06                (XTL084_1.9)    0.0000                    

(XTL084_2.6) 1.559E-09                (XTL084_2.7)-10.81E-06                    

(XTL084_2.8)-10.81E-06                (XTL084_2.9)    0.0000                    

(XTL084_3.6)-4.923E-09                (XTL084_3.7) 33.93E-06                    

(XTL084_3.8) 33.93E-06                (XTL084_3.9)    0.0000                    

(XTL084_1.10)    -.3986               (XTL084_1.11)  -14.6550                   

(XTL084_1.12)  -14.6550               (XTL084_1.53)   12.8000                   

(XTL084_1.54)  -12.8000               (XTL084_1.90)-2.735E-06                   

(XTL084_1.91)   25.0000               (XTL084_1.92)  -25.0000                   

(XTL084_1.99)    0.0000               (XTL084_2.10)    -.3986                   

(XTL084_2.11)  -14.6550               (XTL084_2.12)  -14.6550                   

(XTL084_2.53)   12.8000               (XTL084_2.54)  -12.8000                   

(XTL084_2.90)-1.311E-06               (XTL084_2.91)   25.0000                   

(XTL084_2.92)  -25.0000               (XTL084_2.99)    0.0000                   

(XTL084_3.10)    -.3986               (XTL084_3.11)  -14.6550                   

(XTL084_3.12)  -14.6550               (XTL084_3.53)   12.8000                   

(XTL084_3.54)  -12.8000               (XTL084_3.90) 5.560E-06                   

(XTL084_3.91)   25.0000               (XTL084_3.92)  -25.0000                   

(XTL084_3.99)    0.0000               




    VOLTAGE SOURCE CURRENTS
    NAME         CURRENT

    Vin          1.379E-09
    Vcc         -4.258E-02
    Vee          4.258E-02
    XTL084_1.VB   1.645E-14
    XTL084_1.VC   1.280E-11
    XTL084_1.VE   1.280E-11
    XTL084_1.VLIM  -2.735E-09
    XTL084_1.VLP  -2.500E-11
    XTL084_1.VLN  -2.500E-11
    XTL084_2.VB   1.559E-14
    XTL084_2.VC   1.280E-11
    XTL084_2.VE   1.280E-11
    XTL084_2.VLIM  -1.311E-09
    XTL084_2.VLP  -2.500E-11
    XTL084_2.VLN  -2.500E-11
    XTL084_3.VB  -4.923E-14
    XTL084_3.VC   1.280E-11
    XTL084_3.VE   1.280E-11
    XTL084_3.VLIM   5.560E-09
    XTL084_3.VLP  -2.500E-11
    XTL084_3.VLN  -2.500E-11

    TOTAL POWER DISSIPATION   1.28E+00  WATTS



          JOB CONCLUDED

**** 05/15/18 19:12:24 ******* PSpice Lite (March 2016) ******* ID# 10813 ****

 *--------------------------------------


 ****     JOB STATISTICS SUMMARY


******************************************************************************



  Total job time (using Solver 1)   =         .09
