
**** 05/15/18 19:26:27 ******* PSpice Lite (March 2016) ******* ID# 10813 ****

 *--------------------------------------


 ****     CIRCUIT DESCRIPTION


******************************************************************************



* BAND-PASS ACTIVE FILTER                         -
*                                     -
* Author: Van Dessel Stijn            -
* Date: 9 may 2018                    -
* Filename: AFtrap_21_mcr1_tl084.cir -
*--------------------------------------
.inc TL084.cir

**** INCLUDING TL084.cir ****
* TL084 OPERATIONAL AMPLIFIER "MACROMODEL" SUBCIRCUIT
* CREATED USING PARTS RELEASE 4.01 ON 06/16/89 AT 13:08
* (REV N/A)      SUPPLY VOLTAGE: +/-15V
* CONNECTIONS:   NON-INVERTING INPUT
*                | INVERTING INPUT
*                | | POSITIVE POWER SUPPLY
*                | | | NEGATIVE POWER SUPPLY
*                | | | | OUTPUT
*                | | | | |
.SUBCKT TL084    1 2 3 4 5
*
  C1   11 12 3.498E-12
  C2    6  7 15.00E-12
  DC    5 53 DX
  DE   54  5 DX
  DLP  90 91 DX
  DLN  92 90 DX
  DP    4  3 DX
  EGND 99  0 POLY(2) (3,0) (4,0) 0 .5 .5
  FB    7 99 POLY(5) VB VC VE VLP VLN 0 4.715E6 -5E6 5E6 5E6 -5E6
  GA    6  0 11 12 282.8E-6
  GCM   0  6 10 99 8.942E-9
  ISS   3 10 DC 195.0E-6
  HLIM 90  0 VLIM 1K
  J1   11  2 10 JX
  J2   12  1 10 JX
  R2    6  9 100.0E3
  RD1   4 11 3.536E3
  RD2   4 12 3.536E3
  RO1   8  5 150
  RO2   7 99 150
  RP    3  4 2.143E3
  RSS  10 99 1.026E6
  VB    9  0 DC 0
  VC    3 53 DC 2.200
  VE   54  4 DC 2.200
  VLIM  7  8 DC 0
  VLP  91  0 DC 25
  VLN   0 92 DC 25
.MODEL DX D(IS=800.0E-18)
.MODEL JX PJF(IS=15.00E-12 BETA=270.1E-6 VTO=-1)
.ENDS

**** RESUMING "AFtrap_21_mcr1_tl084 .cir" ****

.model rmod  res(r = 1k  DEV  1%)
.model cmod  cap(c = 1n  DEV  1%)

Vin 7 0 AC 1V
Vcc 10 0  DC  15V
Vee 20 0  DC -15V

R1 5 7 rmod 7.9577
R2 2 3 rmod 7.9577
R3 3 4 rmod 7.9577
R4 4 5 rmod 7.9577
R5 5 6 rmod 15.915
R6 1 6 rmod 7.9577
C1 1 2 cmod 10
C2 5 6 cmod 40

*       i+ i- V+ V-  O
XTL084_1   0  3 10 20  2 TL084
XTL084_2   0  5 10 20  6 TL084
XTL084_3   1  0 10 20  4 TL084

.AC DEC 100 100HZ 10KHZ
.MC 10 AC V(6) YMAX LIST OUTPUT ALL

.PROBE
.END

**** 05/15/18 19:26:27 ******* PSpice Lite (March 2016) ******* ID# 10813 ****

 *--------------------------------------


 ****     Diode MODEL PARAMETERS


******************************************************************************




               XTL084_1.DX     XTL084_2.DX     XTL084_3.DX     
          IS  800.000000E-18  800.000000E-18  800.000000E-18 


**** 05/15/18 19:26:27 ******* PSpice Lite (March 2016) ******* ID# 10813 ****

 *--------------------------------------


 ****     Junction FET MODEL PARAMETERS


******************************************************************************




               XTL084_1.JX     XTL084_2.JX     XTL084_3.JX     
               PJF             PJF             PJF             
         VTO   -1              -1              -1            
        BETA  270.100000E-06  270.100000E-06  270.100000E-06 
          IS   15.000000E-12   15.000000E-12   15.000000E-12 


**** 05/15/18 19:26:27 ******* PSpice Lite (March 2016) ******* ID# 10813 ****

 *--------------------------------------


 ****     Resistor MODEL PARAMETERS


******************************************************************************




               rmod            
           R    1.000000E+03 


**** 05/15/18 19:26:27 ******* PSpice Lite (March 2016) ******* ID# 10813 ****

 *--------------------------------------


 ****     Capacitor MODEL PARAMETERS


******************************************************************************




               cmod            
           C    1.000000E-09 


**** 05/15/18 19:26:27 ******* PSpice Lite (March 2016) ******* ID# 10813 ****

 *--------------------------------------


 ****     SMALL SIGNAL BIAS SOLUTION       TEMPERATURE =   27.000 DEG C

                      MONTE CARLO NOMINAL

******************************************************************************



 NODE   VOLTAGE     NODE   VOLTAGE     NODE   VOLTAGE     NODE   VOLTAGE


(    1)-10.97E-06  (    2)-10.79E-06  (    3) 10.97E-06  (    4) 33.09E-06      

(    5) 10.97E-06  (    6)-10.61E-06  (    7)    0.0000  (   10)   15.0000      

(   20)  -15.0000  (XTL084_1.6) 1.645E-09                (XTL084_1.7)-11.20E-06 

(XTL084_1.8)-11.20E-06                (XTL084_1.9)    0.0000                    

(XTL084_2.6) 1.559E-09                (XTL084_2.7)-10.81E-06                    

(XTL084_2.8)-10.81E-06                (XTL084_2.9)    0.0000                    

(XTL084_3.6)-4.923E-09                (XTL084_3.7) 33.93E-06                    

(XTL084_3.8) 33.93E-06                (XTL084_3.9)    0.0000                    

(XTL084_1.10)    -.3986               (XTL084_1.11)  -14.6550                   

(XTL084_1.12)  -14.6550               (XTL084_1.53)   12.8000                   

(XTL084_1.54)  -12.8000               (XTL084_1.90)-2.735E-06                   

(XTL084_1.91)   25.0000               (XTL084_1.92)  -25.0000                   

(XTL084_1.99)    0.0000               (XTL084_2.10)    -.3986                   

(XTL084_2.11)  -14.6550               (XTL084_2.12)  -14.6550                   

(XTL084_2.53)   12.8000               (XTL084_2.54)  -12.8000                   

(XTL084_2.90)-1.311E-06               (XTL084_2.91)   25.0000                   

(XTL084_2.92)  -25.0000               (XTL084_2.99)    0.0000                   

(XTL084_3.10)    -.3986               (XTL084_3.11)  -14.6550                   

(XTL084_3.12)  -14.6550               (XTL084_3.53)   12.8000                   

(XTL084_3.54)  -12.8000               (XTL084_3.90) 5.560E-06                   

(XTL084_3.91)   25.0000               (XTL084_3.92)  -25.0000                   

(XTL084_3.99)    0.0000               




    VOLTAGE SOURCE CURRENTS
    NAME         CURRENT

    Vin          1.379E-09
    Vcc         -4.258E-02
    Vee          4.258E-02
    XTL084_1.VB   1.645E-14
    XTL084_1.VC   1.280E-11
    XTL084_1.VE   1.280E-11
    XTL084_1.VLIM  -2.735E-09
    XTL084_1.VLP  -2.500E-11
    XTL084_1.VLN  -2.500E-11
    XTL084_2.VB   1.559E-14
    XTL084_2.VC   1.280E-11
    XTL084_2.VE   1.280E-11
    XTL084_2.VLIM  -1.311E-09
    XTL084_2.VLP  -2.500E-11
    XTL084_2.VLN  -2.500E-11
    XTL084_3.VB  -4.923E-14
    XTL084_3.VC   1.280E-11
    XTL084_3.VE   1.280E-11
    XTL084_3.VLIM   5.560E-09
    XTL084_3.VLP  -2.500E-11
    XTL084_3.VLN  -2.500E-11

    TOTAL POWER DISSIPATION   1.28E+00  WATTS


**** 05/15/18 19:26:27 ******* PSpice Lite (March 2016) ******* ID# 10813 ****

 *--------------------------------------


 ****     UPDATED MODEL PARAMETERS         TEMPERATURE =   27.000 DEG C

                      MONTE CARLO NOMINAL

******************************************************************************



     **** CURRENT MODEL PARAMETERS FOR DEVICES REFERENCING cmod
                                    C1           C2      
                  C             1.0000E-09   1.0000E-09  
                               
    
     **** CURRENT MODEL PARAMETERS FOR DEVICES REFERENCING rmod
                                    R1           R2      R3           
                  R             1.0000E+03   1.0000E+03   1.0000E+03  

    
                                    R4           R5      R6           
                  R             1.0000E+03   1.0000E+03   1.0000E+03  

    

**** 05/15/18 19:26:27 ******* PSpice Lite (March 2016) ******* ID# 10813 ****

 *--------------------------------------


 ****     SMALL SIGNAL BIAS SOLUTION       TEMPERATURE =   27.000 DEG C

                      MONTE CARLO PASS 2

******************************************************************************



 NODE   VOLTAGE     NODE   VOLTAGE     NODE   VOLTAGE     NODE   VOLTAGE


(    1)-10.97E-06  (    2)-11.16E-06  (    3) 10.97E-06  (    4) 33.18E-06      

(    5) 10.97E-06  (    6)-10.61E-06  (    7)    0.0000  (   10)   15.0000      

(   20)  -15.0000  (XTL084_1.6) 1.698E-09                (XTL084_1.7)-11.57E-06 

(XTL084_1.8)-11.57E-06                (XTL084_1.9)    0.0000                    

(XTL084_2.6) 1.559E-09                (XTL084_2.7)-10.81E-06                    

(XTL084_2.8)-10.81E-06                (XTL084_2.9)    0.0000                    

(XTL084_3.6)-4.936E-09                (XTL084_3.7) 34.02E-06                    

(XTL084_3.8) 34.02E-06                (XTL084_3.9)    0.0000                    

(XTL084_1.10)    -.3986               (XTL084_1.11)  -14.6550                   

(XTL084_1.12)  -14.6550               (XTL084_1.53)   12.8000                   

(XTL084_1.54)  -12.8000               (XTL084_1.90)-2.760E-06                   

(XTL084_1.91)   25.0000               (XTL084_1.92)  -25.0000                   

(XTL084_1.99)    0.0000               (XTL084_2.10)    -.3986                   

(XTL084_2.11)  -14.6550               (XTL084_2.12)  -14.6550                   

(XTL084_2.53)   12.8000               (XTL084_2.54)  -12.8000                   

(XTL084_2.90)-1.318E-06               (XTL084_2.91)   25.0000                   

(XTL084_2.92)  -25.0000               (XTL084_2.99)    0.0000                   

(XTL084_3.10)    -.3986               (XTL084_3.11)  -14.6550                   

(XTL084_3.12)  -14.6550               (XTL084_3.53)   12.8000                   

(XTL084_3.54)  -12.8000               (XTL084_3.90) 5.588E-06                   

(XTL084_3.91)   25.0000               (XTL084_3.92)  -25.0000                   

(XTL084_3.99)    0.0000               




    VOLTAGE SOURCE CURRENTS
    NAME         CURRENT

    Vin          1.375E-09
    Vcc         -4.258E-02
    Vee          4.258E-02
    XTL084_1.VB   1.698E-14
    XTL084_1.VC   1.280E-11
    XTL084_1.VE   1.280E-11
    XTL084_1.VLIM  -2.760E-09
    XTL084_1.VLP  -2.500E-11
    XTL084_1.VLN  -2.500E-11
    XTL084_2.VB   1.559E-14
    XTL084_2.VC   1.280E-11
    XTL084_2.VE   1.280E-11
    XTL084_2.VLIM  -1.318E-09
    XTL084_2.VLP  -2.500E-11
    XTL084_2.VLN  -2.500E-11
    XTL084_3.VB  -4.936E-14
    XTL084_3.VC   1.280E-11
    XTL084_3.VE   1.280E-11
    XTL084_3.VLIM   5.588E-09
    XTL084_3.VLP  -2.500E-11
    XTL084_3.VLN  -2.500E-11

    TOTAL POWER DISSIPATION   1.28E+00  WATTS


**** 05/15/18 19:26:27 ******* PSpice Lite (March 2016) ******* ID# 10813 ****

 *--------------------------------------


 ****     UPDATED MODEL PARAMETERS         TEMPERATURE =   27.000 DEG C

                      MONTE CARLO PASS 2

******************************************************************************



     **** CURRENT MODEL PARAMETERS FOR DEVICES REFERENCING cmod
                                    C1           C2      
                  C             9.9885E-10   9.9952E-10  
                               
    
     **** CURRENT MODEL PARAMETERS FOR DEVICES REFERENCING rmod
                                    R1           R2      R3           
                  R             1.0027E+03   1.0077E+03   9.9493E+02  

    
                                    R4           R5      R6           
                  R             1.0028E+03   9.9494E+02   1.0028E+03  

    

**** 05/15/18 19:26:27 ******* PSpice Lite (March 2016) ******* ID# 10813 ****

 *--------------------------------------


 ****     SMALL SIGNAL BIAS SOLUTION       TEMPERATURE =   27.000 DEG C

                      MONTE CARLO PASS 3

******************************************************************************



 NODE   VOLTAGE     NODE   VOLTAGE     NODE   VOLTAGE     NODE   VOLTAGE


(    1)-10.97E-06  (    2)-10.72E-06  (    3) 10.97E-06  (    4) 32.87E-06      

(    5) 10.97E-06  (    6)-10.61E-06  (    7)    0.0000  (   10)   15.0000      

(   20)  -15.0000  (XTL084_1.6) 1.634E-09                (XTL084_1.7)-11.13E-06 

(XTL084_1.8)-11.13E-06                (XTL084_1.9)    0.0000                    

(XTL084_2.6) 1.559E-09                (XTL084_2.7)-10.81E-06                    

(XTL084_2.8)-10.81E-06                (XTL084_2.9)    0.0000                    

(XTL084_3.6)-4.891E-09                (XTL084_3.7) 33.70E-06                    

(XTL084_3.8) 33.70E-06                (XTL084_3.9)    0.0000                    

(XTL084_1.10)    -.3986               (XTL084_1.11)  -14.6550                   

(XTL084_1.12)  -14.6550               (XTL084_1.53)   12.8000                   

(XTL084_1.54)  -12.8000               (XTL084_1.90)-2.717E-06                   

(XTL084_1.91)   25.0000               (XTL084_1.92)  -25.0000                   

(XTL084_1.99)    0.0000               (XTL084_2.10)    -.3986                   

(XTL084_2.11)  -14.6550               (XTL084_2.12)  -14.6550                   

(XTL084_2.53)   12.8000               (XTL084_2.54)  -12.8000                   

(XTL084_2.90)-1.304E-06               (XTL084_2.91)   25.0000                   

(XTL084_2.92)  -25.0000               (XTL084_2.99)    0.0000                   

(XTL084_3.10)    -.3986               (XTL084_3.11)  -14.6550                   

(XTL084_3.12)  -14.6550               (XTL084_3.53)   12.8000                   

(XTL084_3.54)  -12.8000               (XTL084_3.90) 5.523E-06                   

(XTL084_3.91)   25.0000               (XTL084_3.92)  -25.0000                   

(XTL084_3.99)    0.0000               




    VOLTAGE SOURCE CURRENTS
    NAME         CURRENT

    Vin          1.368E-09
    Vcc         -4.258E-02
    Vee          4.258E-02
    XTL084_1.VB   1.634E-14
    XTL084_1.VC   1.280E-11
    XTL084_1.VE   1.280E-11
    XTL084_1.VLIM  -2.717E-09
    XTL084_1.VLP  -2.500E-11
    XTL084_1.VLN  -2.500E-11
    XTL084_2.VB   1.559E-14
    XTL084_2.VC   1.280E-11
    XTL084_2.VE   1.280E-11
    XTL084_2.VLIM  -1.304E-09
    XTL084_2.VLP  -2.500E-11
    XTL084_2.VLN  -2.500E-11
    XTL084_3.VB  -4.891E-14
    XTL084_3.VC   1.280E-11
    XTL084_3.VE   1.280E-11
    XTL084_3.VLIM   5.523E-09
    XTL084_3.VLP  -2.500E-11
    XTL084_3.VLN  -2.500E-11

    TOTAL POWER DISSIPATION   1.28E+00  WATTS


**** 05/15/18 19:26:27 ******* PSpice Lite (March 2016) ******* ID# 10813 ****

 *--------------------------------------


 ****     UPDATED MODEL PARAMETERS         TEMPERATURE =   27.000 DEG C

                      MONTE CARLO PASS 3

******************************************************************************



     **** CURRENT MODEL PARAMETERS FOR DEVICES REFERENCING cmod
                                    C1           C2      
                  C             1.0029E-09   9.9256E-10  
                               
    
     **** CURRENT MODEL PARAMETERS FOR DEVICES REFERENCING rmod
                                    R1           R2      R3           
                  R             1.0080E+03   1.0034E+03   9.9662E+02  

    
                                    R4           R5      R6           
                  R             9.9677E+02   1.0057E+03   9.9340E+02  

    

**** 05/15/18 19:26:27 ******* PSpice Lite (March 2016) ******* ID# 10813 ****

 *--------------------------------------


 ****     SMALL SIGNAL BIAS SOLUTION       TEMPERATURE =   27.000 DEG C

                      MONTE CARLO PASS 4

******************************************************************************



 NODE   VOLTAGE     NODE   VOLTAGE     NODE   VOLTAGE     NODE   VOLTAGE


(    1)-10.97E-06  (    2)-10.67E-06  (    3) 10.97E-06  (    4) 33.09E-06      

(    5) 10.97E-06  (    6)-10.61E-06  (    7)    0.0000  (   10)   15.0000      

(   20)  -15.0000  (XTL084_1.6) 1.627E-09                (XTL084_1.7)-11.08E-06 

(XTL084_1.8)-11.08E-06                (XTL084_1.9)    0.0000                    

(XTL084_2.6) 1.558E-09                (XTL084_2.7)-10.81E-06                    

(XTL084_2.8)-10.81E-06                (XTL084_2.9)    0.0000                    

(XTL084_3.6)-4.923E-09                (XTL084_3.7) 33.93E-06                    

(XTL084_3.8) 33.93E-06                (XTL084_3.9)    0.0000                    

(XTL084_1.10)    -.3986               (XTL084_1.11)  -14.6550                   

(XTL084_1.12)  -14.6550               (XTL084_1.53)   12.8000                   

(XTL084_1.54)  -12.8000               (XTL084_1.90)-2.723E-06                   

(XTL084_1.91)   25.0000               (XTL084_1.92)  -25.0000                   

(XTL084_1.99)    0.0000               (XTL084_2.10)    -.3986                   

(XTL084_2.11)  -14.6550               (XTL084_2.12)  -14.6550                   

(XTL084_2.53)   12.8000               (XTL084_2.54)  -12.8000                   

(XTL084_2.90)-1.311E-06               (XTL084_2.91)   25.0000                   

(XTL084_2.92)  -25.0000               (XTL084_2.99)    0.0000                   

(XTL084_3.10)    -.3986               (XTL084_3.11)  -14.6550                   

(XTL084_3.12)  -14.6550               (XTL084_3.53)   12.8000                   

(XTL084_3.54)  -12.8000               (XTL084_3.90) 5.541E-06                   

(XTL084_3.91)   25.0000               (XTL084_3.92)  -25.0000                   

(XTL084_3.99)    0.0000               




    VOLTAGE SOURCE CURRENTS
    NAME         CURRENT

    Vin          1.372E-09
    Vcc         -4.258E-02
    Vee          4.258E-02
    XTL084_1.VB   1.627E-14
    XTL084_1.VC   1.280E-11
    XTL084_1.VE   1.280E-11
    XTL084_1.VLIM  -2.723E-09
    XTL084_1.VLP  -2.500E-11
    XTL084_1.VLN  -2.500E-11
    XTL084_2.VB   1.558E-14
    XTL084_2.VC   1.280E-11
    XTL084_2.VE   1.280E-11
    XTL084_2.VLIM  -1.311E-09
    XTL084_2.VLP  -2.500E-11
    XTL084_2.VLN  -2.500E-11
    XTL084_3.VB  -4.923E-14
    XTL084_3.VC   1.280E-11
    XTL084_3.VE   1.280E-11
    XTL084_3.VLIM   5.541E-09
    XTL084_3.VLP  -2.500E-11
    XTL084_3.VLN  -2.500E-11

    TOTAL POWER DISSIPATION   1.28E+00  WATTS


**** 05/15/18 19:26:27 ******* PSpice Lite (March 2016) ******* ID# 10813 ****

 *--------------------------------------


 ****     UPDATED MODEL PARAMETERS         TEMPERATURE =   27.000 DEG C

                      MONTE CARLO PASS 4

******************************************************************************



     **** CURRENT MODEL PARAMETERS FOR DEVICES REFERENCING cmod
                                    C1           C2      
                  C             9.9422E-10   9.9149E-10  
                               
    
     **** CURRENT MODEL PARAMETERS FOR DEVICES REFERENCING rmod
                                    R1           R2      R3           
                  R             1.0048E+03   9.9894E+02   1.0045E+03  

    
                                    R4           R5      R6           
                  R             1.0024E+03   9.9975E+02   1.0047E+03  

    

**** 05/15/18 19:26:27 ******* PSpice Lite (March 2016) ******* ID# 10813 ****

 *--------------------------------------


 ****     SMALL SIGNAL BIAS SOLUTION       TEMPERATURE =   27.000 DEG C

                      MONTE CARLO PASS 5

******************************************************************************



 NODE   VOLTAGE     NODE   VOLTAGE     NODE   VOLTAGE     NODE   VOLTAGE


(    1)-10.97E-06  (    2)-11.02E-06  (    3) 10.97E-06  (    4) 33.32E-06      

(    5) 10.97E-06  (    6)-10.61E-06  (    7)    0.0000  (   10)   15.0000      

(   20)  -15.0000  (XTL084_1.6) 1.679E-09                (XTL084_1.7)-11.44E-06 

(XTL084_1.8)-11.44E-06                (XTL084_1.9)    0.0000                    

(XTL084_2.6) 1.558E-09                (XTL084_2.7)-10.81E-06                    

(XTL084_2.8)-10.81E-06                (XTL084_2.9)    0.0000                    

(XTL084_3.6)-4.957E-09                (XTL084_3.7) 34.16E-06                    

(XTL084_3.8) 34.16E-06                (XTL084_3.9)    0.0000                    

(XTL084_1.10)    -.3986               (XTL084_1.11)  -14.6550                   

(XTL084_1.12)  -14.6550               (XTL084_1.53)   12.8000                   

(XTL084_1.54)  -12.8000               (XTL084_1.90)-2.767E-06                   

(XTL084_1.91)   25.0000               (XTL084_1.92)  -25.0000                   

(XTL084_1.99)    0.0000               (XTL084_2.10)    -.3986                   

(XTL084_2.11)  -14.6550               (XTL084_2.12)  -14.6550                   

(XTL084_2.53)   12.8000               (XTL084_2.54)  -12.8000                   

(XTL084_2.90)-1.310E-06               (XTL084_2.91)   25.0000                   

(XTL084_2.92)  -25.0000               (XTL084_2.99)    0.0000                   

(XTL084_3.10)    -.3986               (XTL084_3.11)  -14.6550                   

(XTL084_3.12)  -14.6550               (XTL084_3.53)   12.8000                   

(XTL084_3.54)  -12.8000               (XTL084_3.90) 5.603E-06                   

(XTL084_3.91)   25.0000               (XTL084_3.92)  -25.0000                   

(XTL084_3.99)    0.0000               




    VOLTAGE SOURCE CURRENTS
    NAME         CURRENT

    Vin          1.390E-09
    Vcc         -4.258E-02
    Vee          4.258E-02
    XTL084_1.VB   1.679E-14
    XTL084_1.VC   1.280E-11
    XTL084_1.VE   1.280E-11
    XTL084_1.VLIM  -2.767E-09
    XTL084_1.VLP  -2.500E-11
    XTL084_1.VLN  -2.500E-11
    XTL084_2.VB   1.558E-14
    XTL084_2.VC   1.280E-11
    XTL084_2.VE   1.280E-11
    XTL084_2.VLIM  -1.310E-09
    XTL084_2.VLP  -2.500E-11
    XTL084_2.VLN  -2.500E-11
    XTL084_3.VB  -4.957E-14
    XTL084_3.VC   1.280E-11
    XTL084_3.VE   1.280E-11
    XTL084_3.VLIM   5.603E-09
    XTL084_3.VLP  -2.500E-11
    XTL084_3.VLN  -2.500E-11

    TOTAL POWER DISSIPATION   1.28E+00  WATTS


**** 05/15/18 19:26:27 ******* PSpice Lite (March 2016) ******* ID# 10813 ****

 *--------------------------------------


 ****     UPDATED MODEL PARAMETERS         TEMPERATURE =   27.000 DEG C

                      MONTE CARLO PASS 5

******************************************************************************



     **** CURRENT MODEL PARAMETERS FOR DEVICES REFERENCING cmod
                                    C1           C2      
                  C             1.0034E-09   1.0068E-09  
                               
    
     **** CURRENT MODEL PARAMETERS FOR DEVICES REFERENCING rmod
                                    R1           R2      R3           
                  R             9.9178E+02   9.9871E+02   9.9866E+02  

    
                                    R4           R5      R6           
                  R             1.0064E+03   1.0005E+03   1.0046E+03  

    

**** 05/15/18 19:26:27 ******* PSpice Lite (March 2016) ******* ID# 10813 ****

 *--------------------------------------


 ****     SMALL SIGNAL BIAS SOLUTION       TEMPERATURE =   27.000 DEG C

                      MONTE CARLO PASS 6

******************************************************************************



 NODE   VOLTAGE     NODE   VOLTAGE     NODE   VOLTAGE     NODE   VOLTAGE


(    1)-10.97E-06  (    2)-10.44E-06  (    3) 10.97E-06  (    4) 32.94E-06      

(    5) 10.97E-06  (    6)-10.61E-06  (    7)    0.0000  (   10)   15.0000      

(   20)  -15.0000  (XTL084_1.6) 1.592E-09                (XTL084_1.7)-10.84E-06 

(XTL084_1.8)-10.84E-06                (XTL084_1.9)    0.0000                    

(XTL084_2.6) 1.559E-09                (XTL084_2.7)-10.81E-06                    

(XTL084_2.8)-10.81E-06                (XTL084_2.9)    0.0000                    

(XTL084_3.6)-4.900E-09                (XTL084_3.7) 33.77E-06                    

(XTL084_3.8) 33.77E-06                (XTL084_3.9)    0.0000                    

(XTL084_1.10)    -.3986               (XTL084_1.11)  -14.6550                   

(XTL084_1.12)  -14.6550               (XTL084_1.53)   12.8000                   

(XTL084_1.54)  -12.8000               (XTL084_1.90)-2.689E-06                   

(XTL084_1.91)   25.0000               (XTL084_1.92)  -25.0000                   

(XTL084_1.99)    0.0000               (XTL084_2.10)    -.3986                   

(XTL084_2.11)  -14.6550               (XTL084_2.12)  -14.6550                   

(XTL084_2.53)   12.8000               (XTL084_2.54)  -12.8000                   

(XTL084_2.90)-1.321E-06               (XTL084_2.91)   25.0000                   

(XTL084_2.92)  -25.0000               (XTL084_2.99)    0.0000                   

(XTL084_3.10)    -.3986               (XTL084_3.11)  -14.6550                   

(XTL084_3.12)  -14.6550               (XTL084_3.53)   12.8000                   

(XTL084_3.54)  -12.8000               (XTL084_3.90) 5.519E-06                   

(XTL084_3.91)   25.0000               (XTL084_3.92)  -25.0000                   

(XTL084_3.99)    0.0000               




    VOLTAGE SOURCE CURRENTS
    NAME         CURRENT

    Vin          1.374E-09
    Vcc         -4.258E-02
    Vee          4.258E-02
    XTL084_1.VB   1.592E-14
    XTL084_1.VC   1.280E-11
    XTL084_1.VE   1.280E-11
    XTL084_1.VLIM  -2.689E-09
    XTL084_1.VLP  -2.500E-11
    XTL084_1.VLN  -2.500E-11
    XTL084_2.VB   1.559E-14
    XTL084_2.VC   1.280E-11
    XTL084_2.VE   1.280E-11
    XTL084_2.VLIM  -1.321E-09
    XTL084_2.VLP  -2.500E-11
    XTL084_2.VLN  -2.500E-11
    XTL084_3.VB  -4.899E-14
    XTL084_3.VC   1.280E-11
    XTL084_3.VE   1.280E-11
    XTL084_3.VLIM   5.519E-09
    XTL084_3.VLP  -2.500E-11
    XTL084_3.VLN  -2.500E-11

    TOTAL POWER DISSIPATION   1.28E+00  WATTS


**** 05/15/18 19:26:27 ******* PSpice Lite (March 2016) ******* ID# 10813 ****

 *--------------------------------------


 ****     UPDATED MODEL PARAMETERS         TEMPERATURE =   27.000 DEG C

                      MONTE CARLO PASS 6

******************************************************************************



     **** CURRENT MODEL PARAMETERS FOR DEVICES REFERENCING cmod
                                    C1           C2      
                  C             9.9843E-10   1.0099E-09  
                               
    
     **** CURRENT MODEL PARAMETERS FOR DEVICES REFERENCING rmod
                                    R1           R2      R3           
                  R             1.0037E+03   1.0002E+03   1.0095E+03  

    
                                    R4           R5      R6           
                  R             9.9134E+02   9.9266E+02   1.0057E+03  

    

**** 05/15/18 19:26:27 ******* PSpice Lite (March 2016) ******* ID# 10813 ****

 *--------------------------------------


 ****     SMALL SIGNAL BIAS SOLUTION       TEMPERATURE =   27.000 DEG C

                      MONTE CARLO PASS 7

******************************************************************************



 NODE   VOLTAGE     NODE   VOLTAGE     NODE   VOLTAGE     NODE   VOLTAGE


(    1)-10.97E-06  (    2)-11.03E-06  (    3) 10.97E-06  (    4) 33.26E-06      

(    5) 10.97E-06  (    6)-10.61E-06  (    7)    0.0000  (   10)   15.0000      

(   20)  -15.0000  (XTL084_1.6) 1.679E-09                (XTL084_1.7)-11.44E-06 

(XTL084_1.8)-11.44E-06                (XTL084_1.9)    0.0000                    

(XTL084_2.6) 1.560E-09                (XTL084_2.7)-10.81E-06                    

(XTL084_2.8)-10.81E-06                (XTL084_2.9)    0.0000                    

(XTL084_3.6)-4.948E-09                (XTL084_3.7) 34.10E-06                    

(XTL084_3.8) 34.10E-06                (XTL084_3.9)    0.0000                    

(XTL084_1.10)    -.3986               (XTL084_1.11)  -14.6550                   

(XTL084_1.12)  -14.6550               (XTL084_1.53)   12.8000                   

(XTL084_1.54)  -12.8000               (XTL084_1.90)-2.752E-06                   

(XTL084_1.91)   25.0000               (XTL084_1.92)  -25.0000                   

(XTL084_1.99)    0.0000               (XTL084_2.10)    -.3986                   

(XTL084_2.11)  -14.6550               (XTL084_2.12)  -14.6550                   

(XTL084_2.53)   12.8000               (XTL084_2.54)  -12.8000                   

(XTL084_2.90)-1.324E-06               (XTL084_2.91)   25.0000                   

(XTL084_2.92)  -25.0000               (XTL084_2.99)    0.0000                   

(XTL084_3.10)    -.3986               (XTL084_3.11)  -14.6550                   

(XTL084_3.12)  -14.6550               (XTL084_3.53)   12.8000                   

(XTL084_3.54)  -12.8000               (XTL084_3.90) 5.584E-06                   

(XTL084_3.91)   25.0000               (XTL084_3.92)  -25.0000                   

(XTL084_3.99)    0.0000               




    VOLTAGE SOURCE CURRENTS
    NAME         CURRENT

    Vin          1.374E-09
    Vcc         -4.258E-02
    Vee          4.258E-02
    XTL084_1.VB   1.679E-14
    XTL084_1.VC   1.280E-11
    XTL084_1.VE   1.280E-11
    XTL084_1.VLIM  -2.752E-09
    XTL084_1.VLP  -2.500E-11
    XTL084_1.VLN  -2.500E-11
    XTL084_2.VB   1.560E-14
    XTL084_2.VC   1.280E-11
    XTL084_2.VE   1.280E-11
    XTL084_2.VLIM  -1.324E-09
    XTL084_2.VLP  -2.500E-11
    XTL084_2.VLN  -2.500E-11
    XTL084_3.VB  -4.948E-14
    XTL084_3.VC   1.280E-11
    XTL084_3.VE   1.280E-11
    XTL084_3.VLIM   5.584E-09
    XTL084_3.VLP  -2.500E-11
    XTL084_3.VLN  -2.500E-11

    TOTAL POWER DISSIPATION   1.28E+00  WATTS


**** 05/15/18 19:26:27 ******* PSpice Lite (March 2016) ******* ID# 10813 ****

 *--------------------------------------


 ****     UPDATED MODEL PARAMETERS         TEMPERATURE =   27.000 DEG C

                      MONTE CARLO PASS 7

******************************************************************************



     **** CURRENT MODEL PARAMETERS FOR DEVICES REFERENCING cmod
                                    C1           C2      
                  C             9.9833E-10   1.0005E-09  
                               
    
     **** CURRENT MODEL PARAMETERS FOR DEVICES REFERENCING rmod
                                    R1           R2      R3           
                  R             1.0037E+03   1.0046E+03   1.0016E+03  

    
                                    R4           R5      R6           
                  R             1.0048E+03   9.9065E+02   9.9344E+02  

    

**** 05/15/18 19:26:27 ******* PSpice Lite (March 2016) ******* ID# 10813 ****

 *--------------------------------------


 ****     SMALL SIGNAL BIAS SOLUTION       TEMPERATURE =   27.000 DEG C

                      MONTE CARLO PASS 8

******************************************************************************



 NODE   VOLTAGE     NODE   VOLTAGE     NODE   VOLTAGE     NODE   VOLTAGE


(    1)-10.97E-06  (    2)-10.74E-06  (    3) 10.97E-06  (    4) 32.91E-06      

(    5) 10.97E-06  (    6)-10.61E-06  (    7)    0.0000  (   10)   15.0000      

(   20)  -15.0000  (XTL084_1.6) 1.637E-09                (XTL084_1.7)-11.15E-06 

(XTL084_1.8)-11.15E-06                (XTL084_1.9)    0.0000                    

(XTL084_2.6) 1.558E-09                (XTL084_2.7)-10.81E-06                    

(XTL084_2.8)-10.81E-06                (XTL084_2.9)    0.0000                    

(XTL084_3.6)-4.896E-09                (XTL084_3.7) 33.74E-06                    

(XTL084_3.8) 33.74E-06                (XTL084_3.9)    0.0000                    

(XTL084_1.10)    -.3986               (XTL084_1.11)  -14.6550                   

(XTL084_1.12)  -14.6550               (XTL084_1.53)   12.8000                   

(XTL084_1.54)  -12.8000               (XTL084_1.90)-2.720E-06                   

(XTL084_1.91)   25.0000               (XTL084_1.92)  -25.0000                   

(XTL084_1.99)    0.0000               (XTL084_2.10)    -.3986                   

(XTL084_2.11)  -14.6550               (XTL084_2.12)  -14.6550                   

(XTL084_2.53)   12.8000               (XTL084_2.54)  -12.8000                   

(XTL084_2.90)-1.316E-06               (XTL084_2.91)   25.0000                   

(XTL084_2.92)  -25.0000               (XTL084_2.99)    0.0000                   

(XTL084_3.10)    -.3986               (XTL084_3.11)  -14.6550                   

(XTL084_3.12)  -14.6550               (XTL084_3.53)   12.8000                   

(XTL084_3.54)  -12.8000               (XTL084_3.90) 5.540E-06                   

(XTL084_3.91)   25.0000               (XTL084_3.92)  -25.0000                   

(XTL084_3.99)    0.0000               




    VOLTAGE SOURCE CURRENTS
    NAME         CURRENT

    Vin          1.369E-09
    Vcc         -4.258E-02
    Vee          4.258E-02
    XTL084_1.VB   1.637E-14
    XTL084_1.VC   1.280E-11
    XTL084_1.VE   1.280E-11
    XTL084_1.VLIM  -2.720E-09
    XTL084_1.VLP  -2.500E-11
    XTL084_1.VLN  -2.500E-11
    XTL084_2.VB   1.558E-14
    XTL084_2.VC   1.280E-11
    XTL084_2.VE   1.280E-11
    XTL084_2.VLIM  -1.316E-09
    XTL084_2.VLP  -2.500E-11
    XTL084_2.VLN  -2.500E-11
    XTL084_3.VB  -4.896E-14
    XTL084_3.VC   1.280E-11
    XTL084_3.VE   1.280E-11
    XTL084_3.VLIM   5.540E-09
    XTL084_3.VLP  -2.500E-11
    XTL084_3.VLN  -2.500E-11

    TOTAL POWER DISSIPATION   1.28E+00  WATTS


**** 05/15/18 19:26:27 ******* PSpice Lite (March 2016) ******* ID# 10813 ****

 *--------------------------------------


 ****     UPDATED MODEL PARAMETERS         TEMPERATURE =   27.000 DEG C

                      MONTE CARLO PASS 8

******************************************************************************



     **** CURRENT MODEL PARAMETERS FOR DEVICES REFERENCING cmod
                                    C1           C2      
                  C             1.0025E-09   9.9580E-10  
                               
    
     **** CURRENT MODEL PARAMETERS FOR DEVICES REFERENCING rmod
                                    R1           R2      R3           
                  R             1.0069E+03   1.0030E+03   9.9674E+02  

    
                                    R4           R5      R6           
                  R             9.9334E+02   9.9658E+02   1.0076E+03  

    

**** 05/15/18 19:26:27 ******* PSpice Lite (March 2016) ******* ID# 10813 ****

 *--------------------------------------


 ****     SMALL SIGNAL BIAS SOLUTION       TEMPERATURE =   27.000 DEG C

                      MONTE CARLO PASS 9

******************************************************************************



 NODE   VOLTAGE     NODE   VOLTAGE     NODE   VOLTAGE     NODE   VOLTAGE


(    1)-10.97E-06  (    2)-10.60E-06  (    3) 10.97E-06  (    4) 33.09E-06      

(    5) 10.97E-06  (    6)-10.61E-06  (    7)    0.0000  (   10)   15.0000      

(   20)  -15.0000  (XTL084_1.6) 1.617E-09                (XTL084_1.7)-11.01E-06 

(XTL084_1.8)-11.01E-06                (XTL084_1.9)    0.0000                    

(XTL084_2.6) 1.558E-09                (XTL084_2.7)-10.81E-06                    

(XTL084_2.8)-10.81E-06                (XTL084_2.9)    0.0000                    

(XTL084_3.6)-4.922E-09                (XTL084_3.7) 33.92E-06                    

(XTL084_3.8) 33.92E-06                (XTL084_3.9)    0.0000                    

(XTL084_1.10)    -.3986               (XTL084_1.11)  -14.6550                   

(XTL084_1.12)  -14.6550               (XTL084_1.53)   12.8000                   

(XTL084_1.54)  -12.8000               (XTL084_1.90)-2.719E-06                   

(XTL084_1.91)   25.0000               (XTL084_1.92)  -25.0000                   

(XTL084_1.99)    0.0000               (XTL084_2.10)    -.3986                   

(XTL084_2.11)  -14.6550               (XTL084_2.12)  -14.6550                   

(XTL084_2.53)   12.8000               (XTL084_2.54)  -12.8000                   

(XTL084_2.90)-1.301E-06               (XTL084_2.91)   25.0000                   

(XTL084_2.92)  -25.0000               (XTL084_2.99)    0.0000                   

(XTL084_3.10)    -.3986               (XTL084_3.11)  -14.6550                   

(XTL084_3.12)  -14.6550               (XTL084_3.53)   12.8000                   

(XTL084_3.54)  -12.8000               (XTL084_3.90) 5.536E-06                   

(XTL084_3.91)   25.0000               (XTL084_3.92)  -25.0000                   

(XTL084_3.99)    0.0000               




    VOLTAGE SOURCE CURRENTS
    NAME         CURRENT

    Vin          1.381E-09
    Vcc         -4.258E-02
    Vee          4.258E-02
    XTL084_1.VB   1.617E-14
    XTL084_1.VC   1.280E-11
    XTL084_1.VE   1.280E-11
    XTL084_1.VLIM  -2.719E-09
    XTL084_1.VLP  -2.500E-11
    XTL084_1.VLN  -2.500E-11
    XTL084_2.VB   1.558E-14
    XTL084_2.VC   1.280E-11
    XTL084_2.VE   1.280E-11
    XTL084_2.VLIM  -1.301E-09
    XTL084_2.VLP  -2.500E-11
    XTL084_2.VLN  -2.500E-11
    XTL084_3.VB  -4.922E-14
    XTL084_3.VC   1.280E-11
    XTL084_3.VE   1.280E-11
    XTL084_3.VLIM   5.536E-09
    XTL084_3.VLP  -2.500E-11
    XTL084_3.VLN  -2.500E-11

    TOTAL POWER DISSIPATION   1.28E+00  WATTS


**** 05/15/18 19:26:27 ******* PSpice Lite (March 2016) ******* ID# 10813 ****

 *--------------------------------------


 ****     UPDATED MODEL PARAMETERS         TEMPERATURE =   27.000 DEG C

                      MONTE CARLO PASS 9

******************************************************************************



     **** CURRENT MODEL PARAMETERS FOR DEVICES REFERENCING cmod
                                    C1           C2      
                  C             1.0023E-09   9.9690E-10  
                               
    
     **** CURRENT MODEL PARAMETERS FOR DEVICES REFERENCING rmod
                                    R1           R2      R3           
                  R             9.9840E+02   9.9722E+02   1.0059E+03  

    
                                    R4           R5      R6           
                  R             1.0029E+03   1.0075E+03   9.9646E+02  

    

**** 05/15/18 19:26:27 ******* PSpice Lite (March 2016) ******* ID# 10813 ****

 *--------------------------------------


 ****     SMALL SIGNAL BIAS SOLUTION       TEMPERATURE =   27.000 DEG C

                      MONTE CARLO PASS 10

******************************************************************************



 NODE   VOLTAGE     NODE   VOLTAGE     NODE   VOLTAGE     NODE   VOLTAGE


(    1)-10.97E-06  (    2)-11.08E-06  (    3) 10.97E-06  (    4) 33.17E-06      

(    5) 10.97E-06  (    6)-10.61E-06  (    7)    0.0000  (   10)   15.0000      

(   20)  -15.0000  (XTL084_1.6) 1.687E-09                (XTL084_1.7)-11.50E-06 

(XTL084_1.8)-11.50E-06                (XTL084_1.9)    0.0000                    

(XTL084_2.6) 1.558E-09                (XTL084_2.7)-10.81E-06                    

(XTL084_2.8)-10.81E-06                (XTL084_2.9)    0.0000                    

(XTL084_3.6)-4.934E-09                (XTL084_3.7) 34.00E-06                    

(XTL084_3.8) 34.00E-06                (XTL084_3.9)    0.0000                    

(XTL084_1.10)    -.3986               (XTL084_1.11)  -14.6550                   

(XTL084_1.12)  -14.6550               (XTL084_1.53)   12.8000                   

(XTL084_1.54)  -12.8000               (XTL084_1.90)-2.755E-06                   

(XTL084_1.91)   25.0000               (XTL084_1.92)  -25.0000                   

(XTL084_1.99)    0.0000               (XTL084_2.10)    -.3986                   

(XTL084_2.11)  -14.6550               (XTL084_2.12)  -14.6550                   

(XTL084_2.53)   12.8000               (XTL084_2.54)  -12.8000                   

(XTL084_2.90)-1.301E-06               (XTL084_2.91)   25.0000                   

(XTL084_2.92)  -25.0000               (XTL084_2.99)    0.0000                   

(XTL084_3.10)    -.3986               (XTL084_3.11)  -14.6550                   

(XTL084_3.12)  -14.6550               (XTL084_3.53)   12.8000                   

(XTL084_3.54)  -12.8000               (XTL084_3.90) 5.565E-06                   

(XTL084_3.91)   25.0000               (XTL084_3.92)  -25.0000                   

(XTL084_3.99)    0.0000               




    VOLTAGE SOURCE CURRENTS
    NAME         CURRENT

    Vin          1.375E-09
    Vcc         -4.258E-02
    Vee          4.258E-02
    XTL084_1.VB   1.687E-14
    XTL084_1.VC   1.280E-11
    XTL084_1.VE   1.280E-11
    XTL084_1.VLIM  -2.755E-09
    XTL084_1.VLP  -2.500E-11
    XTL084_1.VLN  -2.500E-11
    XTL084_2.VB   1.558E-14
    XTL084_2.VC   1.280E-11
    XTL084_2.VE   1.280E-11
    XTL084_2.VLIM  -1.301E-09
    XTL084_2.VLP  -2.500E-11
    XTL084_2.VLN  -2.500E-11
    XTL084_3.VB  -4.934E-14
    XTL084_3.VC   1.280E-11
    XTL084_3.VE   1.280E-11
    XTL084_3.VLIM   5.565E-09
    XTL084_3.VLP  -2.500E-11
    XTL084_3.VLN  -2.500E-11

    TOTAL POWER DISSIPATION   1.28E+00  WATTS


**** 05/15/18 19:26:27 ******* PSpice Lite (March 2016) ******* ID# 10813 ****

 *--------------------------------------


 ****     UPDATED MODEL PARAMETERS         TEMPERATURE =   27.000 DEG C

                      MONTE CARLO PASS 10

******************************************************************************



     **** CURRENT MODEL PARAMETERS FOR DEVICES REFERENCING cmod
                                    C1           C2      
                  C             1.0011E-09   1.0048E-09  
                               
    
     **** CURRENT MODEL PARAMETERS FOR DEVICES REFERENCING rmod
                                    R1           R2      R3           
                  R             1.0030E+03   1.0062E+03   9.9636E+02  

    
                                    R4           R5      R6           
                  R             1.0086E+03   1.0074E+03   1.0044E+03  

    

**** 05/15/18 19:26:27 ******* PSpice Lite (March 2016) ******* ID# 10813 ****

 *--------------------------------------


 ****     SORTED DEVIATIONS OF V(6)        TEMPERATURE =   27.000 DEG C

                      MONTE CARLO SUMMARY

******************************************************************************





Mean Deviation =  -32.1470E-06
Sigma          =     .0544

 RUN                    MAX DEVIATION FROM NOMINAL

Pass   10                .0966  (1.77 sigma)  higher  at F =  912.01
                        ( 105.99% of Nominal)

Pass    5                .0816  (1.50 sigma)  higher  at F =  912.01
                        ( 105.06% of Nominal)

Pass    2                .0571  (1.05 sigma)  lower  at F =    1.0715E+03
                        (  96.734% of Nominal)

Pass    4                .0461  ( .85 sigma)  lower  at F =  933.25
                        (  97.372% of Nominal)

Pass    9                .0424  ( .78 sigma)  higher  at F =    1.0715E+03
                        ( 102.43% of Nominal)

Pass    6                .033   ( .61 sigma)  lower  at F =  933.25
                        (  98.118% of Nominal)

Pass    8                .0301  ( .55 sigma)  lower  at F =    1.0471E+03
                        (  98.393% of Nominal)

Pass    3                .0286  ( .53 sigma)  lower  at F =  912.01
                        (  98.223% of Nominal)

Pass    7                .026   ( .48 sigma)  lower  at F =    1.0000E+03
                        (  98.702% of Nominal)



          JOB CONCLUDED

**** 05/15/18 19:26:27 ******* PSpice Lite (March 2016) ******* ID# 10813 ****

 *--------------------------------------


 ****     JOB STATISTICS SUMMARY


******************************************************************************



  Total job time (using Solver 1)   =         .52
