
**** 05/15/18 19:04:58 ******* PSpice Lite (March 2016) ******* ID# 10813 ****

 *--------------------------------------


 ****     CIRCUIT DESCRIPTION


******************************************************************************



* BAND-PASS ACTIVE FILTER                         -
*                                     -
* Author: Van Dessel Stijn            -
* Date: 9 may 2018                    -
* Filename: AFtrap_21_bode_vcvs.cir -
*--------------------------------------
.inc opamp84.cir

**** INCLUDING opamp84.cir ****
*
* vcvs opamp model (TL084)
*
* Adc   = 200000   (amplification at DC)
* fu    = 3 MHz    (unity gain frequency)
* f-3dB = 5 Hz = fu/Adc
* Rin   = 1E12 Ohm (input impedance) 
* Rout  = 100 Ohm  (output impedance)

* CONNECTIONS:    NON-INVERTING INPUT
*                 | INVERTING INPUT
*                 | | OUTPUT
*                 | | |
.SUBCKT opamp84  1 2 3
E1    10  0    1 2   200000
E2    30  0   20 0   1
R1    10 20  60KOHM
C1    20  0  159.2NFARAD
ROUT  30  3  100OHM
RIN    1  2  1E12OHM
.ENDS

**** RESUMING AFtrap_21_bode_vcvs.cir ****

.model rmod  res(r = 1k  DEV  5%)
.model cmod  cap(c = 1n  DEV 20%)

Vin    7 0 AC 1V

R1 5 7 rmod 7.9577
R2 2 3 rmod 7.9577
R3 3 4 rmod 7.9577
R4 4 5 rmod 7.9577
R5 5 6 rmod 15.915
R6 1 6 rmod 7.9577
C1 1 2 cmod 10
C2 5 6 cmod 40

*          i+ i- O
XTL084_1   0  3  2 opamp84
XTL084_2   0  5  6 opamp84
XTL084_3   1  0  4 opamp84

.AC DEC 100 100HZ 100MEGHZ
*.AC DEC 100 100HZ 10KHZ

.PROBE
.END

**** 05/15/18 19:04:58 ******* PSpice Lite (March 2016) ******* ID# 10813 ****

 *--------------------------------------


 ****     Resistor MODEL PARAMETERS


******************************************************************************




               rmod            
           R    1.000000E+03 


**** 05/15/18 19:04:58 ******* PSpice Lite (March 2016) ******* ID# 10813 ****

 *--------------------------------------


 ****     Capacitor MODEL PARAMETERS


******************************************************************************




               cmod            
           C    1.000000E-09 


**** 05/15/18 19:04:58 ******* PSpice Lite (March 2016) ******* ID# 10813 ****

 *--------------------------------------


 ****     SMALL SIGNAL BIAS SOLUTION       TEMPERATURE =   27.000 DEG C


******************************************************************************



 NODE   VOLTAGE     NODE   VOLTAGE     NODE   VOLTAGE     NODE   VOLTAGE


(    1)    0.0000  (    2)    0.0000  (    3)    0.0000  (    4)    0.0000      

(    5)    0.0000  (    6)    0.0000  (    7)    0.0000  (XTL084_1.10)    0.0000

(XTL084_1.20)    0.0000               (XTL084_1.30)    0.0000                   

(XTL084_2.10)    0.0000               (XTL084_2.20)    0.0000                   

(XTL084_2.30)    0.0000               (XTL084_3.10)    0.0000                   

(XTL084_3.20)    0.0000               (XTL084_3.30)    0.0000               




    VOLTAGE SOURCE CURRENTS
    NAME         CURRENT

    Vin          0.000E+00

    TOTAL POWER DISSIPATION   0.00E+00  WATTS



          JOB CONCLUDED

**** 05/15/18 19:04:58 ******* PSpice Lite (March 2016) ******* ID# 10813 ****

 *--------------------------------------


 ****     JOB STATISTICS SUMMARY


******************************************************************************



  Total job time (using Solver 1)   =         .05
