
**** 05/15/18 20:03:15 ******* PSpice Lite (March 2016) ******* ID# 10813 ****

 *--------------------------------------


 ****     CIRCUIT DESCRIPTION


******************************************************************************



* BAND-PASS ACTIVE FILTER                         -
*                                     -
* Author: Van Dessel Stijn            -
* Date: 9 may 2018                    -
* Filename: AFtrap_21_bode_ideaal.cir -
*--------------------------------------
.inc opampIdeal.cir

**** INCLUDING opampIdeal.cir ****
*
* ideal opamp model (pure VCVS)
*
* Adc   = 200000  (amplification at DC)
* Rin   = infinite MOhm  (imput impedance) 
* Rout  = 0 Ohm  (output impedance)

* CONNECTIONS:      NON-INVERTING INPUT
*                   | INVERTING INPUT
*                   | | OUTPUT
*                   | | |
.SUBCKT opampIdeal  1 2 3
E1    3  0    1 2   200000
.ENDS

**** RESUMING AFtrap_21_bode_ideaal.cir ****

.model rmod  res(r = 1k  DEV  5%)
.model cmod  cap(c = 1n  DEV 20%)

Vin    7 0 AC 1V

R1 5 7 rmod 7.9577
R2 2 3 rmod 7.9577
R3 3 4 rmod 7.9577
R4 4 5 rmod 7.9577
R5 5 6 rmod 15.915
R6 1 6 rmod 7.9577
C1 1 2 cmod 10
C2 5 6 cmod 40

*          i+ i- O
XTL084_1   0  3  2 opampIdeal
XTL084_2   0  5  6 opampIdeal
XTL084_3   1  0  4 opampIdeal

.AC DEC 100 100HZ 100MEGHZ
*.AC DEC 100 100HZ 10KHZ

.PROBE
.END

**** 05/15/18 20:03:15 ******* PSpice Lite (March 2016) ******* ID# 10813 ****

 *--------------------------------------


 ****     Resistor MODEL PARAMETERS


******************************************************************************




               rmod            
           R    1.000000E+03 


**** 05/15/18 20:03:15 ******* PSpice Lite (March 2016) ******* ID# 10813 ****

 *--------------------------------------


 ****     Capacitor MODEL PARAMETERS


******************************************************************************




               cmod            
           C    1.000000E-09 


**** 05/15/18 20:03:15 ******* PSpice Lite (March 2016) ******* ID# 10813 ****

 *--------------------------------------


 ****     SMALL SIGNAL BIAS SOLUTION       TEMPERATURE =   27.000 DEG C


******************************************************************************



 NODE   VOLTAGE     NODE   VOLTAGE     NODE   VOLTAGE     NODE   VOLTAGE


(    1)    0.0000  (    2)    0.0000  (    3)    0.0000  (    4)    0.0000      

(    5)    0.0000  (    6)    0.0000  (    7)    0.0000  




    VOLTAGE SOURCE CURRENTS
    NAME         CURRENT

    Vin          0.000E+00

    TOTAL POWER DISSIPATION   0.00E+00  WATTS



          JOB CONCLUDED

**** 05/15/18 20:03:15 ******* PSpice Lite (March 2016) ******* ID# 10813 ****

 *--------------------------------------


 ****     JOB STATISTICS SUMMARY


******************************************************************************



  Total job time (using Solver 1)   =         .03
